/*---------------------------------------------------------------------------*\
| =========                 |                                                 |
| \\      /  F ield         | OpenFOAM: The Open Source CFD Toolbox           |
|  \\    /   O peration     | Version:  2412                                  |
|   \\  /    A nd           | Website:  www.openfoam.com                      |
|    \\/     M anipulation  |                                                 |
\*---------------------------------------------------------------------------*/
Build  : _f00230df-20250528 OPENFOAM=2412 patch=250528 version=v2412
Arch   : "LSB;label=32;scalar=64"
Exec   : /home/user/OpenFOAM/user-v2412/platforms/linux64GccDPInt32Opt/bin/MyrhoPimpleAdiabaticFoam
Date   : Aug 20 2025
Time   : 18:07:45
Host   : user-OptiPlex-5050
PID    : 40253
I/O    : uncollated
Case   : /home/user/OpenFOAM/user-v2412/applications/solvers/MyrhoPimpleAdiabaticFoam/cases/attractor
nProcs : 1
trapFpe: Floating point exception trapping enabled (FOAM_SIGFPE).
fileModificationChecking : Monitoring run-time modified files using timeStampMaster (fileModificationSkew 5, maxFileModificationPolls 20)
allowSystemOperations : Allowing user-supplied system call operations

// * * * * * * * * * * * * * * * * * * * * * * * * * * * * * * * * * * * * * //
Create time

Create mesh for time = 0


PIMPLE: Operating solver in PISO mode

Selecting thermodynamics package 
{
    type            hePsiThermo;
    mixture         pureMixture;
    transport       const;
    thermo          hConst;
    equationOfState perfectGas;
    specie          specie;
    energy          sensibleEnthalpy;
}

Reading field rho

Reading field U

Using dynamicCode for patch left on field U at line 70 in "/home/user/OpenFOAM/user-v2412/applications/solvers/MyrhoPimpleAdiabaticFoam/cases/attractor/0/U/boundaryField/left"
Could not load "/home/user/OpenFOAM/user-v2412/applications/solvers/MyrhoPimpleAdiabaticFoam/cases/attractor/dynamicCode/platforms/linux64GccDPInt32Opt/lib/libincreaseToFixedValue_5a8b32bcf1c7e883416a51f6af380d0c030d885b.so"
/home/user/OpenFOAM/user-v2412/applications/solvers/MyrhoPimpleAdiabaticFoam/cases/attractor/dynamicCode/platforms/linux64GccDPInt32Opt/lib/libincreaseToFixedValue_5a8b32bcf1c7e883416a51f6af380d0c030d885b.so: cannot open shared object file: No such file or directory
Creating new library in "dynamicCode/increaseToFixedValue/platforms/linux64GccDPInt32Opt/lib/libincreaseToFixedValue_5a8b32bcf1c7e883416a51f6af380d0c030d885b.so"
Invoking wmake libso /home/user/OpenFOAM/user-v2412/applications/solvers/MyrhoPimpleAdiabaticFoam/cases/attractor/dynamicCode/increaseToFixedValue
wmake libso /home/user/OpenFOAM/user-v2412/applications/solvers/MyrhoPimpleAdiabaticFoam/cases/attractor/dynamicCode/increaseToFixedValue
    ln: ./lnInclude
    dep: fixedValueFvPatchFieldTemplate.C
    Ctoo: fixedValueFvPatchFieldTemplate.C
    link: /home/user/OpenFOAM/user-v2412/applications/solvers/MyrhoPimpleAdiabaticFoam/cases/attractor/dynamicCode/increaseToFixedValue/../platforms/linux64GccDPInt32Opt/lib/libincreaseToFixedValue_5a8b32bcf1c7e883416a51f6af380d0c030d885b.so
Reading field P

Calculating face flux field phi

Calculating face flux field phiByRho

No MRF models present

No finite volume options present

Starting time loop

Courant Number mean: 4.698773483e-13 max: 1.77094062e-10
Time = 1e-05

PIMPLE: iteration 1
DILUPBiCGStab:  Solving for Ux, Initial residual = 0.9999999995, Final residual = 3.835342546e-23, No Iterations 1
DILUPBiCGStab:  Solving for Uy, Initial residual = 1, Final residual = 4.045831934e-24, No Iterations 1
DILUPBiCGStab:  Solving for rho, Initial residual = 0.9999999966, Final residual = 3.090549689e-27, No Iterations 1
DICPCG:  Solving for p, Initial residual = 1, Final residual = 9.914697398e-10, No Iterations 338
ExecutionTime = 0.24 s  ClockTime = 6 s

Courant Number mean: 5.632871448e-10 max: 6.487262043e-10
Time = 2e-05

PIMPLE: iteration 1
DILUPBiCGStab:  Solving for Ux, Initial residual = 0.5983841715, Final residual = 1.206715811e-24, No Iterations 1
DILUPBiCGStab:  Solving for Uy, Initial residual = 0.5736010495, Final residual = 4.820491155e-24, No Iterations 1
DILUPBiCGStab:  Solving for rho, Initial residual = 0.5474151071, Final residual = 1.299814738e-26, No Iterations 1
DICPCG:  Solving for p, Initial residual = 0.01001755592, Final residual = 9.43164592e-10, No Iterations 307
ExecutionTime = 0.43 s  ClockTime = 6 s

Courant Number mean: 5.342117284e-10 max: 1.763790205e-09
Time = 3e-05

PIMPLE: iteration 1
DILUPBiCGStab:  Solving for Ux, Initial residual = 0.2723862382, Final residual = 1.973674202e-24, No Iterations 1
DILUPBiCGStab:  Solving for Uy, Initial residual = 0.4837283755, Final residual = 9.791944253e-24, No Iterations 1
DILUPBiCGStab:  Solving for rho, Initial residual = 0.240016355, Final residual = 9.283365424e-30, No Iterations 1
DICPCG:  Solving for p, Initial residual = 0.009813115425, Final residual = 9.674800459e-10, No Iterations 300
ExecutionTime = 0.6 s  ClockTime = 6 s

Courant Number mean: 1.06957908e-10 max: 9.43440842e-10
Time = 4e-05

PIMPLE: iteration 1
DILUPBiCGStab:  Solving for Ux, Initial residual = 0.145035012, Final residual = 9.222228633e-25, No Iterations 1
DILUPBiCGStab:  Solving for Uy, Initial residual = 0.1798136254, Final residual = 1.034842197e-23, No Iterations 1
DILUPBiCGStab:  Solving for rho, Initial residual = 0.1833906534, Final residual = 1.045864172e-28, No Iterations 1
DICPCG:  Solving for p, Initial residual = 0.005835426606, Final residual = 9.532000083e-10, No Iterations 291
ExecutionTime = 0.78 s  ClockTime = 7 s

Courant Number mean: 2.564017572e-10 max: 7.697271402e-10
Time = 5e-05

PIMPLE: iteration 1
DILUPBiCGStab:  Solving for Ux, Initial residual = 0.05806560556, Final residual = 1.44011497e-24, No Iterations 1
DILUPBiCGStab:  Solving for Uy, Initial residual = 0.09986965902, Final residual = 7.763781254e-24, No Iterations 1
DILUPBiCGStab:  Solving for rho, Initial residual = 0.1312245596, Final residual = 1.570696393e-29, No Iterations 1
DICPCG:  Solving for p, Initial residual = 0.005716798385, Final residual = 8.995428208e-10, No Iterations 286
ExecutionTime = 0.94 s  ClockTime = 7 s

Courant Number mean: 1.870258021e-10 max: 6.845027705e-10
Time = 6e-05

PIMPLE: iteration 1
DILUPBiCGStab:  Solving for Ux, Initial residual = 0.0275934299, Final residual = 1.547614562e-24, No Iterations 1
DILUPBiCGStab:  Solving for Uy, Initial residual = 0.05129235645, Final residual = 2.208810688e-24, No Iterations 1
DILUPBiCGStab:  Solving for rho, Initial residual = 0.1085431842, Final residual = 1.802540966e-29, No Iterations 1
DICPCG:  Solving for p, Initial residual = 0.005115478287, Final residual = 9.906020265e-10, No Iterations 278
ExecutionTime = 1.1 s  ClockTime = 7 s

Courant Number mean: 2.158916096e-10 max: 6.717780019e-10
Time = 7e-05

PIMPLE: iteration 1
DILUPBiCGStab:  Solving for Ux, Initial residual = 0.01455045981, Final residual = 1.127977211e-24, No Iterations 1
DILUPBiCGStab:  Solving for Uy, Initial residual = 0.03428284835, Final residual = 1.043866611e-24, No Iterations 1
DILUPBiCGStab:  Solving for rho, Initial residual = 0.09019663882, Final residual = 1.273876322e-29, No Iterations 1
DICPCG:  Solving for p, Initial residual = 0.005081946633, Final residual = 9.177348005e-10, No Iterations 271
ExecutionTime = 1.27 s  ClockTime = 7 s

Courant Number mean: 2.039524867e-10 max: 6.717211798e-10
Time = 8e-05

PIMPLE: iteration 1
DILUPBiCGStab:  Solving for Ux, Initial residual = 0.007347586698, Final residual = 5.746549322e-25, No Iterations 1
DILUPBiCGStab:  Solving for Uy, Initial residual = 0.02717216817, Final residual = 6.907704187e-25, No Iterations 1
DILUPBiCGStab:  Solving for rho, Initial residual = 0.07769767839, Final residual = 1.189315749e-29, No Iterations 1
DICPCG:  Solving for p, Initial residual = 0.004902042414, Final residual = 9.967415088e-10, No Iterations 258
ExecutionTime = 1.44 s  ClockTime = 7 s

Courant Number mean: 2.094691396e-10 max: 6.879549428e-10
Time = 9e-05

PIMPLE: iteration 1
DILUPBiCGStab:  Solving for Ux, Initial residual = 0.006234511324, Final residual = 4.992567379e-25, No Iterations 1
DILUPBiCGStab:  Solving for Uy, Initial residual = 0.02303043216, Final residual = 4.311775106e-25, No Iterations 1
DILUPBiCGStab:  Solving for rho, Initial residual = 0.0677061225, Final residual = 1.033708141e-29, No Iterations 1
DICPCG:  Solving for p, Initial residual = 0.004834159011, Final residual = 9.055431416e-10, No Iterations 250
ExecutionTime = 1.61 s  ClockTime = 7 s

Courant Number mean: 2.075858894e-10 max: 7.047791385e-10
Time = 0.0001

PIMPLE: iteration 1
DILUPBiCGStab:  Solving for Ux, Initial residual = 0.004152767633, Final residual = 2.904692994e-25, No Iterations 1
DILUPBiCGStab:  Solving for Uy, Initial residual = 0.02196370579, Final residual = 3.821972515e-25, No Iterations 1
DILUPBiCGStab:  Solving for rho, Initial residual = 0.06008351989, Final residual = 9.250095044e-30, No Iterations 1
DICPCG:  Solving for p, Initial residual = 0.004737258114, Final residual = 9.318716344e-10, No Iterations 245
ExecutionTime = 1.76 s  ClockTime = 8 s

Courant Number mean: 2.088963498e-10 max: 7.055145363e-10
Time = 0.00011

PIMPLE: iteration 1
DILUPBiCGStab:  Solving for Ux, Initial residual = 0.004621950057, Final residual = 3.268486365e-25, No Iterations 1
DILUPBiCGStab:  Solving for Uy, Initial residual = 0.0204383837, Final residual = 2.79218487e-25, No Iterations 1
DILUPBiCGStab:  Solving for rho, Initial residual = 0.05395832986, Final residual = 8.390391687e-30, No Iterations 1
DICPCG:  Solving for p, Initial residual = 0.004668874937, Final residual = 9.253305708e-10, No Iterations 241
ExecutionTime = 1.93 s  ClockTime = 8 s

Courant Number mean: 2.088164888e-10 max: 6.927978287e-10
Time = 0.00012

PIMPLE: iteration 1
DILUPBiCGStab:  Solving for Ux, Initial residual = 0.004047424868, Final residual = 2.639303984e-25, No Iterations 1
DILUPBiCGStab:  Solving for Uy, Initial residual = 0.01996431507, Final residual = 2.797686472e-25, No Iterations 1
DILUPBiCGStab:  Solving for rho, Initial residual = 0.04898436072, Final residual = 7.585703741e-30, No Iterations 1
DICPCG:  Solving for p, Initial residual = 0.004597949215, Final residual = 9.677258734e-10, No Iterations 235
ExecutionTime = 2.08 s  ClockTime = 8 s

Courant Number mean: 2.093380372e-10 max: 6.812046042e-10
Time = 0.00013

PIMPLE: iteration 1
DILUPBiCGStab:  Solving for Ux, Initial residual = 0.004173412913, Final residual = 2.662784445e-25, No Iterations 1
DILUPBiCGStab:  Solving for Uy, Initial residual = 0.01916767535, Final residual = 2.414611596e-25, No Iterations 1
DILUPBiCGStab:  Solving for rho, Initial residual = 0.04481043422, Final residual = 7.274906765e-30, No Iterations 1
DICPCG:  Solving for p, Initial residual = 0.004534006046, Final residual = 9.700939827e-10, No Iterations 232
ExecutionTime = 2.23 s  ClockTime = 8 s

Courant Number mean: 2.096073211e-10 max: 6.644945572e-10
Time = 0.00014

PIMPLE: iteration 1
DILUPBiCGStab:  Solving for Ux, Initial residual = 0.004033772077, Final residual = 2.422650614e-25, No Iterations 1
DILUPBiCGStab:  Solving for Uy, Initial residual = 0.0186225217, Final residual = 2.316474069e-25, No Iterations 1
DILUPBiCGStab:  Solving for rho, Initial residual = 0.04135888341, Final residual = 6.776486892e-30, No Iterations 1
DICPCG:  Solving for p, Initial residual = 0.004474754722, Final residual = 9.53504607e-10, No Iterations 223
ExecutionTime = 2.39 s  ClockTime = 8 s

Courant Number mean: 2.09997901e-10 max: 6.401229458e-10
Time = 0.00015

PIMPLE: iteration 1
DILUPBiCGStab:  Solving for Ux, Initial residual = 0.004017874251, Final residual = 2.311229931e-25, No Iterations 1
DILUPBiCGStab:  Solving for Uy, Initial residual = 0.01802912281, Final residual = 2.146383182e-25, No Iterations 1
DILUPBiCGStab:  Solving for rho, Initial residual = 0.03843257909, Final residual = 6.395189833e-30, No Iterations 1
DICPCG:  Solving for p, Initial residual = 0.004419471027, Final residual = 9.720714279e-10, No Iterations 210
ExecutionTime = 2.52 s  ClockTime = 8 s

Courant Number mean: 2.103644398e-10 max: 6.356307341e-10
Time = 0.00016

PIMPLE: iteration 1
DILUPBiCGStab:  Solving for Ux, Initial residual = 0.00396575224, Final residual = 2.174175849e-25, No Iterations 1
DILUPBiCGStab:  Solving for Uy, Initial residual = 0.01751632919, Final residual = 2.016093733e-25, No Iterations 1
DILUPBiCGStab:  Solving for rho, Initial residual = 0.03592906869, Final residual = 5.987897883e-30, No Iterations 1
DICPCG:  Solving for p, Initial residual = 0.004369548886, Final residual = 9.820910621e-10, No Iterations 221
ExecutionTime = 2.68 s  ClockTime = 9 s

Courant Number mean: 2.107759516e-10 max: 6.327882883e-10
Time = 0.00017

PIMPLE: iteration 1
DILUPBiCGStab:  Solving for Ux, Initial residual = 0.003963096524, Final residual = 2.078364472e-25, No Iterations 1
DILUPBiCGStab:  Solving for Uy, Initial residual = 0.01701616395, Final residual = 1.869870939e-25, No Iterations 1
DILUPBiCGStab:  Solving for rho, Initial residual = 0.03371244004, Final residual = 5.496876963e-30, No Iterations 1
DICPCG:  Solving for p, Initial residual = 0.004320299809, Final residual = 9.897612791e-10, No Iterations 215
ExecutionTime = 2.87 s  ClockTime = 9 s

Courant Number mean: 2.111727202e-10 max: 6.311359554e-10
Time = 0.00018

PIMPLE: iteration 1
DILUPBiCGStab:  Solving for Ux, Initial residual = 0.003944044817, Final residual = 1.983492027e-25, No Iterations 1
DILUPBiCGStab:  Solving for Uy, Initial residual = 0.0165422787, Final residual = 1.752471986e-25, No Iterations 1
DILUPBiCGStab:  Solving for rho, Initial residual = 0.03175777997, Final residual = 5.403056359e-30, No Iterations 1
DICPCG:  Solving for p, Initial residual = 0.004275825701, Final residual = 9.758154175e-10, No Iterations 218
ExecutionTime = 3.04 s  ClockTime = 9 s

Courant Number mean: 2.115738367e-10 max: 6.299671425e-10
Time = 0.00019

PIMPLE: iteration 1
DILUPBiCGStab:  Solving for Ux, Initial residual = 0.003937509963, Final residual = 1.905814577e-25, No Iterations 1
DILUPBiCGStab:  Solving for Uy, Initial residual = 0.01608460118, Final residual = 1.647432857e-25, No Iterations 1
DILUPBiCGStab:  Solving for rho, Initial residual = 0.03000724416, Final residual = 4.83977181e-30, No Iterations 1
DICPCG:  Solving for p, Initial residual = 0.004234537909, Final residual = 9.886607709e-10, No Iterations 215
ExecutionTime = 3.18 s  ClockTime = 9 s

Courant Number mean: 2.119876104e-10 max: 6.286736204e-10
Time = 0.0002

PIMPLE: iteration 1
DILUPBiCGStab:  Solving for Ux, Initial residual = 0.003940188676, Final residual = 1.836792557e-25, No Iterations 1
DILUPBiCGStab:  Solving for Uy, Initial residual = 0.01565695516, Final residual = 1.54846095e-25, No Iterations 1
DILUPBiCGStab:  Solving for rho, Initial residual = 0.02843191008, Final residual = 4.651392279e-30, No Iterations 1
DICPCG:  Solving for p, Initial residual = 0.004192456051, Final residual = 9.393191118e-10, No Iterations 215
ExecutionTime = 3.34 s  ClockTime = 9 s

Courant Number mean: 2.123997493e-10 max: 6.272829171e-10
Time = 0.00021

PIMPLE: iteration 1
DILUPBiCGStab:  Solving for Ux, Initial residual = 0.003949319351, Final residual = 1.778623954e-25, No Iterations 1
DILUPBiCGStab:  Solving for Uy, Initial residual = 0.01525424971, Final residual = 1.470947933e-25, No Iterations 1
DILUPBiCGStab:  Solving for rho, Initial residual = 0.02701546103, Final residual = 4.495016911e-30, No Iterations 1
DICPCG:  Solving for p, Initial residual = 0.004152454879, Final residual = 9.612991878e-10, No Iterations 212
ExecutionTime = 3.47 s  ClockTime = 9 s

Courant Number mean: 2.128099372e-10 max: 6.258200804e-10
Time = 0.00022

PIMPLE: iteration 1
DILUPBiCGStab:  Solving for Ux, Initial residual = 0.003957902793, Final residual = 1.726621573e-25, No Iterations 1
DILUPBiCGStab:  Solving for Uy, Initial residual = 0.01486829528, Final residual = 1.400235313e-25, No Iterations 1
DILUPBiCGStab:  Solving for rho, Initial residual = 0.0257291579, Final residual = 4.278087183e-30, No Iterations 1
DICPCG:  Solving for p, Initial residual = 0.004113750443, Final residual = 9.960080636e-10, No Iterations 210
ExecutionTime = 3.6 s  ClockTime = 9 s

Courant Number mean: 2.132167862e-10 max: 6.243061792e-10
Time = 0.00023

PIMPLE: iteration 1
DILUPBiCGStab:  Solving for Ux, Initial residual = 0.003973989741, Final residual = 1.684366592e-25, No Iterations 1
DILUPBiCGStab:  Solving for Uy, Initial residual = 0.01450036962, Final residual = 1.326933103e-25, No Iterations 1
DILUPBiCGStab:  Solving for rho, Initial residual = 0.02460138739, Final residual = 4.105453911e-30, No Iterations 1
DICPCG:  Solving for p, Initial residual = 0.004078220753, Final residual = 9.714398069e-10, No Iterations 208
ExecutionTime = 3.72 s  ClockTime = 10 s

Courant Number mean: 2.136242531e-10 max: 6.227584185e-10
Time = 0.00024

PIMPLE: iteration 1
DILUPBiCGStab:  Solving for Ux, Initial residual = 0.00399970945, Final residual = 1.645512081e-25, No Iterations 1
DILUPBiCGStab:  Solving for Uy, Initial residual = 0.01415226554, Final residual = 1.25359799e-25, No Iterations 1
DILUPBiCGStab:  Solving for rho, Initial residual = 0.02356690491, Final residual = 3.881079225e-30, No Iterations 1
DICPCG:  Solving for p, Initial residual = 0.004042451857, Final residual = 8.944716816e-10, No Iterations 207
ExecutionTime = 3.86 s  ClockTime = 10 s

Courant Number mean: 2.140314706e-10 max: 6.211904022e-10
Time = 0.00025

PIMPLE: iteration 1
DILUPBiCGStab:  Solving for Ux, Initial residual = 0.004018002423, Final residual = 1.609515658e-25, No Iterations 1
DILUPBiCGStab:  Solving for Uy, Initial residual = 0.01382289145, Final residual = 1.194215316e-25, No Iterations 1
DILUPBiCGStab:  Solving for rho, Initial residual = 0.0226099177, Final residual = 3.77843994e-30, No Iterations 1
DICPCG:  Solving for p, Initial residual = 0.004006308628, Final residual = 9.932632323e-10, No Iterations 198
ExecutionTime = 3.99 s  ClockTime = 10 s

Courant Number mean: 2.144330049e-10 max: 6.196126627e-10
Time = 0.00026

PIMPLE: iteration 1
DILUPBiCGStab:  Solving for Ux, Initial residual = 0.004039876917, Final residual = 1.579465966e-25, No Iterations 1
DILUPBiCGStab:  Solving for Uy, Initial residual = 0.01350951909, Final residual = 1.150941352e-25, No Iterations 1
DILUPBiCGStab:  Solving for rho, Initial residual = 0.02171736463, Final residual = 3.6732959e-30, No Iterations 1
DICPCG:  Solving for p, Initial residual = 0.003973279335, Final residual = 9.22773973e-10, No Iterations 195
ExecutionTime = 4.11 s  ClockTime = 10 s

Courant Number mean: 2.148262301e-10 max: 6.238879225e-10
Time = 0.00027

PIMPLE: iteration 1
DILUPBiCGStab:  Solving for Ux, Initial residual = 0.004065086619, Final residual = 1.557388231e-25, No Iterations 1
DILUPBiCGStab:  Solving for Uy, Initial residual = 0.01321190066, Final residual = 1.104828097e-25, No Iterations 1
DILUPBiCGStab:  Solving for rho, Initial residual = 0.02088943371, Final residual = 3.560538455e-30, No Iterations 1
DICPCG:  Solving for p, Initial residual = 0.003940310857, Final residual = 9.02592471e-10, No Iterations 191
ExecutionTime = 4.24 s  ClockTime = 10 s

Courant Number mean: 2.152102927e-10 max: 6.367932174e-10
Time = 0.00028

PIMPLE: iteration 1
DILUPBiCGStab:  Solving for Ux, Initial residual = 0.004093746688, Final residual = 1.53133124e-25, No Iterations 1
DILUPBiCGStab:  Solving for Uy, Initial residual = 0.01292781235, Final residual = 1.058725029e-25, No Iterations 1
DILUPBiCGStab:  Solving for rho, Initial residual = 0.02011534535, Final residual = 3.410212353e-30, No Iterations 1
DICPCG:  Solving for p, Initial residual = 0.003907798773, Final residual = 8.802287338e-10, No Iterations 188
ExecutionTime = 4.37 s  ClockTime = 10 s

Courant Number mean: 2.155883209e-10 max: 6.487847341e-10
Time = 0.00029

PIMPLE: iteration 1
DILUPBiCGStab:  Solving for Ux, Initial residual = 0.004121612917, Final residual = 1.514907683e-25, No Iterations 1
DILUPBiCGStab:  Solving for Uy, Initial residual = 0.0126545347, Final residual = 1.013335171e-25, No Iterations 1
DILUPBiCGStab:  Solving for rho, Initial residual = 0.01939195882, Final residual = 3.308324437e-30, No Iterations 1
DICPCG:  Solving for p, Initial residual = 0.003875649245, Final residual = 9.957679423e-10, No Iterations 179
ExecutionTime = 4.49 s  ClockTime = 10 s

Courant Number mean: 2.159691177e-10 max: 6.599605747e-10
Time = 0.0003

PIMPLE: iteration 1
DILUPBiCGStab:  Solving for Ux, Initial residual = 0.00415053091, Final residual = 1.495509154e-25, No Iterations 1
DILUPBiCGStab:  Solving for Uy, Initial residual = 0.01239172542, Final residual = 9.690963481e-26, No Iterations 1
DILUPBiCGStab:  Solving for rho, Initial residual = 0.01871726573, Final residual = 3.197393519e-30, No Iterations 1
DICPCG:  Solving for p, Initial residual = 0.003845789732, Final residual = 9.643469e-10, No Iterations 179
ExecutionTime = 4.6 s  ClockTime = 10 s

Courant Number mean: 2.163474859e-10 max: 6.704055153e-10
Time = 0.00031

PIMPLE: iteration 1
DILUPBiCGStab:  Solving for Ux, Initial residual = 0.004182420451, Final residual = 1.48097099e-25, No Iterations 1
DILUPBiCGStab:  Solving for Uy, Initial residual = 0.01213847225, Final residual = 9.353236416e-26, No Iterations 1
DILUPBiCGStab:  Solving for rho, Initial residual = 0.01808799249, Final residual = 3.081817187e-30, No Iterations 1
DICPCG:  Solving for p, Initial residual = 0.003816235318, Final residual = 9.652552579e-10, No Iterations 186
ExecutionTime = 4.72 s  ClockTime = 11 s

Courant Number mean: 2.167208412e-10 max: 6.801941399e-10
Time = 0.00032

PIMPLE: iteration 1
DILUPBiCGStab:  Solving for Ux, Initial residual = 0.004209588367, Final residual = 1.468728702e-25, No Iterations 1
DILUPBiCGStab:  Solving for Uy, Initial residual = 0.01189487709, Final residual = 9.05598563e-26, No Iterations 1
DILUPBiCGStab:  Solving for rho, Initial residual = 0.01750899103, Final residual = 2.964184994e-30, No Iterations 1
DICPCG:  Solving for p, Initial residual = 0.003786405341, Final residual = 9.849364348e-10, No Iterations 186
ExecutionTime = 4.84 s  ClockTime = 11 s

Courant Number mean: 2.170853646e-10 max: 6.895541357e-10
Time = 0.00033

PIMPLE: iteration 1
DILUPBiCGStab:  Solving for Ux, Initial residual = 0.004239687924, Final residual = 1.453391307e-25, No Iterations 1
DILUPBiCGStab:  Solving for Uy, Initial residual = 0.01166221908, Final residual = 8.785330368e-26, No Iterations 1
DILUPBiCGStab:  Solving for rho, Initial residual = 0.01696555331, Final residual = 2.858810689e-30, No Iterations 1
DICPCG:  Solving for p, Initial residual = 0.003758011137, Final residual = 9.660916352e-10, No Iterations 187
ExecutionTime = 4.97 s  ClockTime = 11 s

Courant Number mean: 2.174392363e-10 max: 7.021443493e-10
Time = 0.00034

PIMPLE: iteration 1
DILUPBiCGStab:  Solving for Ux, Initial residual = 0.004271515289, Final residual = 1.444218036e-25, No Iterations 1
DILUPBiCGStab:  Solving for Uy, Initial residual = 0.01144075619, Final residual = 8.446645669e-26, No Iterations 1
DILUPBiCGStab:  Solving for rho, Initial residual = 0.01645295696, Final residual = 2.792968847e-30, No Iterations 1
DICPCG:  Solving for p, Initial residual = 0.003730988768, Final residual = 9.48504865e-10, No Iterations 187
ExecutionTime = 5.1 s  ClockTime = 11 s

Courant Number mean: 2.177980699e-10 max: 7.140342487e-10
Time = 0.00035

PIMPLE: iteration 1
DILUPBiCGStab:  Solving for Ux, Initial residual = 0.004302901184, Final residual = 1.431593943e-25, No Iterations 1
DILUPBiCGStab:  Solving for Uy, Initial residual = 0.01122732851, Final residual = 8.14492199e-26, No Iterations 1
DILUPBiCGStab:  Solving for rho, Initial residual = 0.01597068787, Final residual = 2.69498259e-30, No Iterations 1
DICPCG:  Solving for p, Initial residual = 0.003704165072, Final residual = 9.423836726e-10, No Iterations 187
ExecutionTime = 5.22 s  ClockTime = 11 s

Courant Number mean: 2.181549713e-10 max: 7.25828606e-10
Time = 0.00036

PIMPLE: iteration 1
DILUPBiCGStab:  Solving for Ux, Initial residual = 0.004334061483, Final residual = 1.429965349e-25, No Iterations 1
DILUPBiCGStab:  Solving for Uy, Initial residual = 0.01102061688, Final residual = 7.903151443e-26, No Iterations 1
DILUPBiCGStab:  Solving for rho, Initial residual = 0.01551338079, Final residual = 2.598428192e-30, No Iterations 1
DICPCG:  Solving for p, Initial residual = 0.003676855526, Final residual = 9.774545392e-10, No Iterations 179
ExecutionTime = 5.33 s  ClockTime = 11 s

Courant Number mean: 2.185032553e-10 max: 7.399880513e-10
Time = 0.00037

PIMPLE: iteration 1
DILUPBiCGStab:  Solving for Ux, Initial residual = 0.004364904935, Final residual = 1.423031825e-25, No Iterations 1
DILUPBiCGStab:  Solving for Uy, Initial residual = 0.01082132782, Final residual = 7.717993485e-26, No Iterations 1
DILUPBiCGStab:  Solving for rho, Initial residual = 0.01507959018, Final residual = 2.493910101e-30, No Iterations 1
DICPCG:  Solving for p, Initial residual = 0.003650470167, Final residual = 9.579010842e-10, No Iterations 187
ExecutionTime = 5.45 s  ClockTime = 11 s

Courant Number mean: 2.188440379e-10 max: 7.534667455e-10
Time = 0.00038

PIMPLE: iteration 1
DILUPBiCGStab:  Solving for Ux, Initial residual = 0.004397085493, Final residual = 1.415590279e-25, No Iterations 1
DILUPBiCGStab:  Solving for Uy, Initial residual = 0.01062958873, Final residual = 7.461190959e-26, No Iterations 1
DILUPBiCGStab:  Solving for rho, Initial residual = 0.01466835073, Final residual = 2.462740491e-30, No Iterations 1
DICPCG:  Solving for p, Initial residual = 0.00362597728, Final residual = 9.725883156e-10, No Iterations 177
ExecutionTime = 5.57 s  ClockTime = 11 s

Courant Number mean: 2.191759085e-10 max: 7.663177978e-10
Time = 0.00039

PIMPLE: iteration 1
DILUPBiCGStab:  Solving for Ux, Initial residual = 0.004425571241, Final residual = 1.412930909e-25, No Iterations 1
DILUPBiCGStab:  Solving for Uy, Initial residual = 0.01044432322, Final residual = 7.234886363e-26, No Iterations 1
DILUPBiCGStab:  Solving for rho, Initial residual = 0.01427983038, Final residual = 2.406392205e-30, No Iterations 1
DICPCG:  Solving for p, Initial residual = 0.003601053398, Final residual = 9.667602302e-10, No Iterations 178
ExecutionTime = 5.68 s  ClockTime = 12 s

Courant Number mean: 2.195044043e-10 max: 7.785895622e-10
Time = 0.0004

PIMPLE: iteration 1
DILUPBiCGStab:  Solving for Ux, Initial residual = 0.004455355245, Final residual = 1.411052692e-25, No Iterations 1
DILUPBiCGStab:  Solving for Uy, Initial residual = 0.01026388001, Final residual = 7.007538158e-26, No Iterations 1
DILUPBiCGStab:  Solving for rho, Initial residual = 0.01391160627, Final residual = 2.339685697e-30, No Iterations 1
DICPCG:  Solving for p, Initial residual = 0.003576317251, Final residual = 9.529982268e-10, No Iterations 177
ExecutionTime = 5.79 s  ClockTime = 12 s

Courant Number mean: 2.198347501e-10 max: 7.903259526e-10
Time = 0.00041

PIMPLE: iteration 1
DILUPBiCGStab:  Solving for Ux, Initial residual = 0.004487532906, Final residual = 1.411533244e-25, No Iterations 1
DILUPBiCGStab:  Solving for Uy, Initial residual = 0.01008978986, Final residual = 6.824095852e-26, No Iterations 1
DILUPBiCGStab:  Solving for rho, Initial residual = 0.01356042734, Final residual = 2.244683065e-30, No Iterations 1
DICPCG:  Solving for p, Initial residual = 0.003552520765, Final residual = 9.286602973e-10, No Iterations 177
ExecutionTime = 5.9 s  ClockTime = 12 s

Courant Number mean: 2.201630802e-10 max: 8.015667414e-10
Time = 0.00042

PIMPLE: iteration 1
DILUPBiCGStab:  Solving for Ux, Initial residual = 0.004517656456, Final residual = 1.408727725e-25, No Iterations 1
DILUPBiCGStab:  Solving for Uy, Initial residual = 0.009922506146, Final residual = 6.655444202e-26, No Iterations 1
DILUPBiCGStab:  Solving for rho, Initial residual = 0.01323007739, Final residual = 2.160766994e-30, No Iterations 1
DICPCG:  Solving for p, Initial residual = 0.003529922446, Final residual = 9.905331287e-10, No Iterations 176
ExecutionTime = 6.02 s  ClockTime = 12 s

Courant Number mean: 2.204848381e-10 max: 8.123478805e-10
Time = 0.00043

PIMPLE: iteration 1
DILUPBiCGStab:  Solving for Ux, Initial residual = 0.004547648441, Final residual = 1.405791986e-25, No Iterations 1
DILUPBiCGStab:  Solving for Uy, Initial residual = 0.009761243949, Final residual = 6.484602254e-26, No Iterations 1
DILUPBiCGStab:  Solving for rho, Initial residual = 0.01291511853, Final residual = 2.122550395e-30, No Iterations 1
DICPCG:  Solving for p, Initial residual = 0.003506891176, Final residual = 9.652214706e-10, No Iterations 176
ExecutionTime = 6.13 s  ClockTime = 12 s

Courant Number mean: 2.207973669e-10 max: 8.22701841e-10
Time = 0.00044

PIMPLE: iteration 1
DILUPBiCGStab:  Solving for Ux, Initial residual = 0.004577029377, Final residual = 1.409644169e-25, No Iterations 1
DILUPBiCGStab:  Solving for Uy, Initial residual = 0.009603996713, Final residual = 6.307915928e-26, No Iterations 1
DILUPBiCGStab:  Solving for rho, Initial residual = 0.01261331595, Final residual = 2.063010237e-30, No Iterations 1
DICPCG:  Solving for p, Initial residual = 0.00348355723, Final residual = 9.358997231e-10, No Iterations 176
ExecutionTime = 6.24 s  ClockTime = 12 s

Courant Number mean: 2.211031654e-10 max: 8.326579562e-10
Time = 0.00045

PIMPLE: iteration 1
DILUPBiCGStab:  Solving for Ux, Initial residual = 0.004606173855, Final residual = 1.408824422e-25, No Iterations 1
DILUPBiCGStab:  Solving for Uy, Initial residual = 0.009452048283, Final residual = 6.118512208e-26, No Iterations 1
DILUPBiCGStab:  Solving for rho, Initial residual = 0.01232453789, Final residual = 2.133316147e-30, No Iterations 1
DICPCG:  Solving for p, Initial residual = 0.003461880521, Final residual = 9.885578398e-10, No Iterations 175
ExecutionTime = 6.35 s  ClockTime = 12 s

Courant Number mean: 2.21413944e-10 max: 8.422427571e-10
Time = 0.00046

PIMPLE: iteration 1
DILUPBiCGStab:  Solving for Ux, Initial residual = 0.004634243257, Final residual = 1.413546261e-25, No Iterations 1
DILUPBiCGStab:  Solving for Uy, Initial residual = 0.009304787426, Final residual = 5.967909426e-26, No Iterations 1
DILUPBiCGStab:  Solving for rho, Initial residual = 0.01204811496, Final residual = 2.000058258e-30, No Iterations 1
DICPCG:  Solving for p, Initial residual = 0.00344087101, Final residual = 9.663251913e-10, No Iterations 175
ExecutionTime = 6.47 s  ClockTime = 12 s

Courant Number mean: 2.217197236e-10 max: 8.514802887e-10
Time = 0.00047

PIMPLE: iteration 1
DILUPBiCGStab:  Solving for Ux, Initial residual = 0.004663213923, Final residual = 1.416709926e-25, No Iterations 1
DILUPBiCGStab:  Solving for Uy, Initial residual = 0.00916183787, Final residual = 5.807986496e-26, No Iterations 1
DILUPBiCGStab:  Solving for rho, Initial residual = 0.01178473669, Final residual = 1.885141422e-30, No Iterations 1
DICPCG:  Solving for p, Initial residual = 0.003419305617, Final residual = 9.370464742e-10, No Iterations 175
ExecutionTime = 6.58 s  ClockTime = 12 s

Courant Number mean: 2.220189529e-10 max: 8.603923978e-10
Time = 0.00048

PIMPLE: iteration 1
DILUPBiCGStab:  Solving for Ux, Initial residual = 0.004692773269, Final residual = 1.417785294e-25, No Iterations 1
DILUPBiCGStab:  Solving for Uy, Initial residual = 0.009023515924, Final residual = 5.725218539e-26, No Iterations 1
DILUPBiCGStab:  Solving for rho, Initial residual = 0.01153225139, Final residual = 1.821190382e-30, No Iterations 1
DICPCG:  Solving for p, Initial residual = 0.003398191184, Final residual = 9.141161717e-10, No Iterations 175
ExecutionTime = 6.7 s  ClockTime = 13 s

Courant Number mean: 2.223116562e-10 max: 8.689989852e-10
Time = 0.00049

PIMPLE: iteration 1
DILUPBiCGStab:  Solving for Ux, Initial residual = 0.004719620326, Final residual = 1.416769569e-25, No Iterations 1
DILUPBiCGStab:  Solving for Uy, Initial residual = 0.008889674705, Final residual = 5.515204962e-26, No Iterations 1
DILUPBiCGStab:  Solving for rho, Initial residual = 0.01129016275, Final residual = 1.802681354e-30, No Iterations 1
DICPCG:  Solving for p, Initial residual = 0.003377949003, Final residual = 8.928160993e-10, No Iterations 175
ExecutionTime = 6.81 s  ClockTime = 13 s

Courant Number mean: 2.225952187e-10 max: 8.773182313e-10
Time = 0.0005

PIMPLE: iteration 1
DILUPBiCGStab:  Solving for Ux, Initial residual = 0.004747244092, Final residual = 1.426142717e-25, No Iterations 1
DILUPBiCGStab:  Solving for Uy, Initial residual = 0.008759365208, Final residual = 5.419924141e-26, No Iterations 1
DILUPBiCGStab:  Solving for rho, Initial residual = 0.01105745835, Final residual = 1.7603388e-30, No Iterations 1
DICPCG:  Solving for p, Initial residual = 0.003358178161, Final residual = 9.768069713e-10, No Iterations 174
ExecutionTime = 6.93 s  ClockTime = 13 s

Courant Number mean: 2.228779115e-10 max: 8.853667868e-10
Time = 0.00051

PIMPLE: iteration 1
DILUPBiCGStab:  Solving for Ux, Initial residual = 0.004774884577, Final residual = 1.432363387e-25, No Iterations 1
DILUPBiCGStab:  Solving for Uy, Initial residual = 0.008632462488, Final residual = 5.324483127e-26, No Iterations 1
DILUPBiCGStab:  Solving for rho, Initial residual = 0.01083527316, Final residual = 1.760432587e-30, No Iterations 1
DICPCG:  Solving for p, Initial residual = 0.003338042603, Final residual = 9.583359404e-10, No Iterations 174
ExecutionTime = 7.05 s  ClockTime = 13 s

Courant Number mean: 2.23162184e-10 max: 8.944829418e-10
Time = 0.00052

PIMPLE: iteration 1
DILUPBiCGStab:  Solving for Ux, Initial residual = 0.004801096033, Final residual = 1.434765071e-25, No Iterations 1
DILUPBiCGStab:  Solving for Uy, Initial residual = 0.008509633265, Final residual = 5.170804456e-26, No Iterations 1
DILUPBiCGStab:  Solving for rho, Initial residual = 0.01062313653, Final residual = 1.700103166e-30, No Iterations 1
DICPCG:  Solving for p, Initial residual = 0.003318405103, Final residual = 9.3311384e-10, No Iterations 174
ExecutionTime = 7.16 s  ClockTime = 13 s

Courant Number mean: 2.234443687e-10 max: 9.040886008e-10
Time = 0.00053

PIMPLE: iteration 1
DILUPBiCGStab:  Solving for Ux, Initial residual = 0.004826854307, Final residual = 1.444129002e-25, No Iterations 1
DILUPBiCGStab:  Solving for Uy, Initial residual = 0.008390896578, Final residual = 5.053796669e-26, No Iterations 1
DILUPBiCGStab:  Solving for rho, Initial residual = 0.01041798318, Final residual = 1.684363239e-30, No Iterations 1
DICPCG:  Solving for p, Initial residual = 0.003299970651, Final residual = 9.11857435e-10, No Iterations 174
ExecutionTime = 7.27 s  ClockTime = 13 s

Courant Number mean: 2.237195259e-10 max: 9.134080511e-10
Time = 0.00054

PIMPLE: iteration 1
DILUPBiCGStab:  Solving for Ux, Initial residual = 0.004853339096, Final residual = 1.450341311e-25, No Iterations 1
DILUPBiCGStab:  Solving for Uy, Initial residual = 0.008275099657, Final residual = 4.998315249e-26, No Iterations 1
DILUPBiCGStab:  Solving for rho, Initial residual = 0.0102204951, Final residual = 1.740390578e-30, No Iterations 1
DICPCG:  Solving for p, Initial residual = 0.003281421418, Final residual = 8.9085884e-10, No Iterations 174
ExecutionTime = 7.38 s  ClockTime = 13 s

Courant Number mean: 2.239888461e-10 max: 9.241728419e-10
Time = 0.00055

PIMPLE: iteration 1
DILUPBiCGStab:  Solving for Ux, Initial residual = 0.004879146931, Final residual = 1.457484027e-25, No Iterations 1
DILUPBiCGStab:  Solving for Uy, Initial residual = 0.00816217921, Final residual = 4.813161978e-26, No Iterations 1
DILUPBiCGStab:  Solving for rho, Initial residual = 0.01003061699, Final residual = 1.621333915e-30, No Iterations 1
DICPCG:  Solving for p, Initial residual = 0.003262724283, Final residual = 9.828114992e-10, No Iterations 173
ExecutionTime = 7.5 s  ClockTime = 13 s

Courant Number mean: 2.242535561e-10 max: 9.347909654e-10
Time = 0.00056

PIMPLE: iteration 1
DILUPBiCGStab:  Solving for Ux, Initial residual = 0.004903205916, Final residual = 1.463915948e-25, No Iterations 1
DILUPBiCGStab:  Solving for Uy, Initial residual = 0.008052008901, Final residual = 4.813847893e-26, No Iterations 1
DILUPBiCGStab:  Solving for rho, Initial residual = 0.009848666112, Final residual = 1.58643523e-30, No Iterations 1
DICPCG:  Solving for p, Initial residual = 0.003244458441, Final residual = 9.979854745e-10, No Iterations 170
ExecutionTime = 7.62 s  ClockTime = 13 s

Courant Number mean: 2.245205541e-10 max: 9.451189434e-10
Time = 0.00057

PIMPLE: iteration 1
DILUPBiCGStab:  Solving for Ux, Initial residual = 0.004927061636, Final residual = 1.469581324e-25, No Iterations 1
DILUPBiCGStab:  Solving for Uy, Initial residual = 0.007944897206, Final residual = 4.675960545e-26, No Iterations 1
DILUPBiCGStab:  Solving for rho, Initial residual = 0.009672420876, Final residual = 1.598397322e-30, No Iterations 1
DICPCG:  Solving for p, Initial residual = 0.003227178429, Final residual = 9.847764193e-10, No Iterations 170
ExecutionTime = 7.73 s  ClockTime = 14 s

Courant Number mean: 2.247840061e-10 max: 9.551704974e-10
Time = 0.00058

PIMPLE: iteration 1
DILUPBiCGStab:  Solving for Ux, Initial residual = 0.004952187081, Final residual = 1.481572986e-25, No Iterations 1
DILUPBiCGStab:  Solving for Uy, Initial residual = 0.007841008667, Final residual = 4.575148914e-26, No Iterations 1
DILUPBiCGStab:  Solving for rho, Initial residual = 0.009502061299, Final residual = 1.55450103e-30, No Iterations 1
DICPCG:  Solving for p, Initial residual = 0.003209899769, Final residual = 9.690386341e-10, No Iterations 169
ExecutionTime = 7.83 s  ClockTime = 14 s

Courant Number mean: 2.250437861e-10 max: 9.649584253e-10
Time = 0.00059

PIMPLE: iteration 1
DILUPBiCGStab:  Solving for Ux, Initial residual = 0.004974969535, Final residual = 1.489260569e-25, No Iterations 1
DILUPBiCGStab:  Solving for Uy, Initial residual = 0.007739904427, Final residual = 4.471294262e-26, No Iterations 1
DILUPBiCGStab:  Solving for rho, Initial residual = 0.009337958539, Final residual = 1.479265101e-30, No Iterations 1
DICPCG:  Solving for p, Initial residual = 0.003192301481, Final residual = 9.492281649e-10, No Iterations 169
ExecutionTime = 7.95 s  ClockTime = 14 s

Courant Number mean: 2.252966474e-10 max: 9.74494685e-10
Time = 0.0006

PIMPLE: iteration 1
DILUPBiCGStab:  Solving for Ux, Initial residual = 0.004997857609, Final residual = 1.496300912e-25, No Iterations 1
DILUPBiCGStab:  Solving for Uy, Initial residual = 0.007641373564, Final residual = 4.439862755e-26, No Iterations 1
DILUPBiCGStab:  Solving for rho, Initial residual = 0.009180005278, Final residual = 1.588166052e-30, No Iterations 1
DICPCG:  Solving for p, Initial residual = 0.003175370628, Final residual = 9.876504802e-10, No Iterations 168
ExecutionTime = 8.06 s  ClockTime = 14 s

Courant Number mean: 2.25540878e-10 max: 9.837904607e-10
Time = 0.00061

PIMPLE: iteration 1
DILUPBiCGStab:  Solving for Ux, Initial residual = 0.005020787194, Final residual = 1.503508989e-25, No Iterations 1
DILUPBiCGStab:  Solving for Uy, Initial residual = 0.007545389668, Final residual = 4.334388087e-26, No Iterations 1
DILUPBiCGStab:  Solving for rho, Initial residual = 0.009027085899, Final residual = 1.407684e-30, No Iterations 1
DICPCG:  Solving for p, Initial residual = 0.003159258982, Final residual = 9.666801695e-10, No Iterations 168
ExecutionTime = 8.17 s  ClockTime = 14 s

Courant Number mean: 2.257860639e-10 max: 9.928562326e-10
Time = 0.00062

PIMPLE: iteration 1
DILUPBiCGStab:  Solving for Ux, Initial residual = 0.005043093943, Final residual = 1.514430808e-25, No Iterations 1
DILUPBiCGStab:  Solving for Uy, Initial residual = 0.007451742692, Final residual = 4.296441829e-26, No Iterations 1
DILUPBiCGStab:  Solving for rho, Initial residual = 0.00887891998, Final residual = 1.4955319e-30, No Iterations 1
DICPCG:  Solving for p, Initial residual = 0.003142934861, Final residual = 9.417480531e-10, No Iterations 168
ExecutionTime = 8.28 s  ClockTime = 14 s

Courant Number mean: 2.260319289e-10 max: 1.001701832e-09
Time = 0.00063

PIMPLE: iteration 1
DILUPBiCGStab:  Solving for Ux, Initial residual = 0.005063769175, Final residual = 1.522358385e-25, No Iterations 1
DILUPBiCGStab:  Solving for Uy, Initial residual = 0.007360252846, Final residual = 4.174797576e-26, No Iterations 1
DILUPBiCGStab:  Solving for rho, Initial residual = 0.008735909329, Final residual = 1.407273937e-30, No Iterations 1
DICPCG:  Solving for p, Initial residual = 0.003126396883, Final residual = 9.191397669e-10, No Iterations 168
ExecutionTime = 8.39 s  ClockTime = 14 s

Courant Number mean: 2.262748399e-10 max: 1.010336497e-09
Time = 0.00064

PIMPLE: iteration 1
DILUPBiCGStab:  Solving for Ux, Initial residual = 0.005085185452, Final residual = 1.526978463e-25, No Iterations 1
DILUPBiCGStab:  Solving for Uy, Initial residual = 0.007271130773, Final residual = 4.128222976e-26, No Iterations 1
DILUPBiCGStab:  Solving for rho, Initial residual = 0.008598077418, Final residual = 1.361625948e-30, No Iterations 1
DICPCG:  Solving for p, Initial residual = 0.003110709117, Final residual = 8.97326664e-10, No Iterations 168
ExecutionTime = 8.5 s  ClockTime = 14 s

Courant Number mean: 2.265129186e-10 max: 1.018768914e-09
Time = 0.00065

PIMPLE: iteration 1
DILUPBiCGStab:  Solving for Ux, Initial residual = 0.005105763154, Final residual = 1.544504946e-25, No Iterations 1
DILUPBiCGStab:  Solving for Uy, Initial residual = 0.007184360228, Final residual = 4.065136784e-26, No Iterations 1
DILUPBiCGStab:  Solving for rho, Initial residual = 0.008464453807, Final residual = 1.35317482e-30, No Iterations 1
DICPCG:  Solving for p, Initial residual = 0.003095687739, Final residual = 9.965909114e-10, No Iterations 167
ExecutionTime = 8.61 s  ClockTime = 15 s

Courant Number mean: 2.267464905e-10 max: 1.027007267e-09
Time = 0.00066

PIMPLE: iteration 1
DILUPBiCGStab:  Solving for Ux, Initial residual = 0.005125914222, Final residual = 1.550830097e-25, No Iterations 1
DILUPBiCGStab:  Solving for Uy, Initial residual = 0.007099322733, Final residual = 4.002013771e-26, No Iterations 1
DILUPBiCGStab:  Solving for rho, Initial residual = 0.008334616379, Final residual = 1.335825264e-30, No Iterations 1
DICPCG:  Solving for p, Initial residual = 0.00308017467, Final residual = 9.766948711e-10, No Iterations 167
ExecutionTime = 8.72 s  ClockTime = 15 s

Courant Number mean: 2.269752871e-10 max: 1.03505927e-09
Time = 0.00067

PIMPLE: iteration 1
DILUPBiCGStab:  Solving for Ux, Initial residual = 0.005145005764, Final residual = 1.563450558e-25, No Iterations 1
DILUPBiCGStab:  Solving for Uy, Initial residual = 0.007016065455, Final residual = 3.925151276e-26, No Iterations 1
DILUPBiCGStab:  Solving for rho, Initial residual = 0.008208487378, Final residual = 1.297782279e-30, No Iterations 1
DICPCG:  Solving for p, Initial residual = 0.003064775572, Final residual = 9.5219831e-10, No Iterations 167
ExecutionTime = 8.84 s  ClockTime = 15 s

Courant Number mean: 2.272057749e-10 max: 1.042932204e-09
Time = 0.00068

PIMPLE: iteration 1
DILUPBiCGStab:  Solving for Ux, Initial residual = 0.005164453975, Final residual = 1.576885222e-25, No Iterations 1
DILUPBiCGStab:  Solving for Uy, Initial residual = 0.006935162779, Final residual = 3.832330332e-26, No Iterations 1
DILUPBiCGStab:  Solving for rho, Initial residual = 0.008086806613, Final residual = 1.281479324e-30, No Iterations 1
DICPCG:  Solving for p, Initial residual = 0.003050145607, Final residual = 9.30866036e-10, No Iterations 167
ExecutionTime = 8.95 s  ClockTime = 15 s

Courant Number mean: 2.274361022e-10 max: 1.05063295e-09
Time = 0.00069

PIMPLE: iteration 1
DILUPBiCGStab:  Solving for Ux, Initial residual = 0.005182426025, Final residual = 1.583114294e-25, No Iterations 1
DILUPBiCGStab:  Solving for Uy, Initial residual = 0.006856222357, Final residual = 3.830696875e-26, No Iterations 1
DILUPBiCGStab:  Solving for rho, Initial residual = 0.007968748877, Final residual = 1.250425751e-30, No Iterations 1
DICPCG:  Solving for p, Initial residual = 0.003036027027, Final residual = 9.101639015e-10, No Iterations 167
ExecutionTime = 9.05 s  ClockTime = 15 s

Courant Number mean: 2.276630849e-10 max: 1.058168015e-09
Time = 0.0007

PIMPLE: iteration 1
DILUPBiCGStab:  Solving for Ux, Initial residual = 0.005200481385, Final residual = 1.594866101e-25, No Iterations 1
DILUPBiCGStab:  Solving for Uy, Initial residual = 0.006779065496, Final residual = 3.802931504e-26, No Iterations 1
DILUPBiCGStab:  Solving for rho, Initial residual = 0.007854117726, Final residual = 1.220917967e-30, No Iterations 1
DICPCG:  Solving for p, Initial residual = 0.003021350784, Final residual = 8.90286643e-10, No Iterations 167
ExecutionTime = 9.16 s  ClockTime = 15 s

Courant Number mean: 2.278827774e-10 max: 1.065543561e-09
Time = 0.00071

PIMPLE: iteration 1
DILUPBiCGStab:  Solving for Ux, Initial residual = 0.00521784146, Final residual = 1.60388722e-25, No Iterations 1
DILUPBiCGStab:  Solving for Uy, Initial residual = 0.006703691097, Final residual = 3.737916301e-26, No Iterations 1
DILUPBiCGStab:  Solving for rho, Initial residual = 0.007742843472, Final residual = 1.202775219e-30, No Iterations 1
DICPCG:  Solving for p, Initial residual = 0.003007038035, Final residual = 8.713307303e-10, No Iterations 167
ExecutionTime = 9.27 s  ClockTime = 15 s

Courant Number mean: 2.280965899e-10 max: 1.072765425e-09
Time = 0.00072

PIMPLE: iteration 1
DILUPBiCGStab:  Solving for Ux, Initial residual = 0.005235114849, Final residual = 1.617671922e-25, No Iterations 1
DILUPBiCGStab:  Solving for Uy, Initial residual = 0.006630072818, Final residual = 3.677067811e-26, No Iterations 1
DILUPBiCGStab:  Solving for rho, Initial residual = 0.007635128498, Final residual = 1.197352063e-30, No Iterations 1
DICPCG:  Solving for p, Initial residual = 0.002993453992, Final residual = 8.529315357e-10, No Iterations 167
ExecutionTime = 9.37 s  ClockTime = 15 s

Courant Number mean: 2.283105911e-10 max: 1.079839145e-09
Time = 0.00073

PIMPLE: iteration 1
DILUPBiCGStab:  Solving for Ux, Initial residual = 0.005251305805, Final residual = 1.627717788e-25, No Iterations 1
DILUPBiCGStab:  Solving for Uy, Initial residual = 0.006558000647, Final residual = 3.661929395e-26, No Iterations 1
DILUPBiCGStab:  Solving for rho, Initial residual = 0.007530556802, Final residual = 1.176535935e-30, No Iterations 1
DICPCG:  Solving for p, Initial residual = 0.002979940121, Final residual = 8.355983808e-10, No Iterations 167
ExecutionTime = 9.47 s  ClockTime = 15 s

Courant Number mean: 2.285253429e-10 max: 1.086769977e-09
Time = 0.00074

PIMPLE: iteration 1
DILUPBiCGStab:  Solving for Ux, Initial residual = 0.005267002254, Final residual = 1.636379179e-25, No Iterations 1
DILUPBiCGStab:  Solving for Uy, Initial residual = 0.006487473305, Final residual = 3.577985028e-26, No Iterations 1
DILUPBiCGStab:  Solving for rho, Initial residual = 0.00742855887, Final residual = 1.19727924e-30, No Iterations 1
DICPCG:  Solving for p, Initial residual = 0.00296621256, Final residual = 9.836290226e-10, No Iterations 166
ExecutionTime = 9.58 s  ClockTime = 15 s

Courant Number mean: 2.287365233e-10 max: 1.094138797e-09
Time = 0.00075

PIMPLE: iteration 1
DILUPBiCGStab:  Solving for Ux, Initial residual = 0.005282330481, Final residual = 1.650617995e-25, No Iterations 1
DILUPBiCGStab:  Solving for Uy, Initial residual = 0.006418683599, Final residual = 3.559478241e-26, No Iterations 1
DILUPBiCGStab:  Solving for rho, Initial residual = 0.007329142911, Final residual = 1.156915535e-30, No Iterations 1
DICPCG:  Solving for p, Initial residual = 0.002952756483, Final residual = 9.677553878e-10, No Iterations 166
ExecutionTime = 9.69 s  ClockTime = 16 s

Courant Number mean: 2.28946132e-10 max: 1.102062656e-09
Time = 0.00076

PIMPLE: iteration 1
DILUPBiCGStab:  Solving for Ux, Initial residual = 0.005296962302, Final residual = 1.657269771e-25, No Iterations 1
DILUPBiCGStab:  Solving for Uy, Initial residual = 0.006351471581, Final residual = 3.516554183e-26, No Iterations 1
DILUPBiCGStab:  Solving for rho, Initial residual = 0.007232730192, Final residual = 1.147479266e-30, No Iterations 1
DICPCG:  Solving for p, Initial residual = 0.002940027727, Final residual = 9.459885628e-10, No Iterations 166
ExecutionTime = 9.82 s  ClockTime = 16 s

Courant Number mean: 2.291499661e-10 max: 1.109836552e-09
Time = 0.00077

PIMPLE: iteration 1
DILUPBiCGStab:  Solving for Ux, Initial residual = 0.005311163852, Final residual = 1.673747569e-25, No Iterations 1
DILUPBiCGStab:  Solving for Uy, Initial residual = 0.006285672245, Final residual = 3.471380662e-26, No Iterations 1
DILUPBiCGStab:  Solving for rho, Initial residual = 0.007139293684, Final residual = 1.114160334e-30, No Iterations 1
DICPCG:  Solving for p, Initial residual = 0.002927296503, Final residual = 9.27019318e-10, No Iterations 166
ExecutionTime = 9.94 s  ClockTime = 16 s

Courant Number mean: 2.293474132e-10 max: 1.118248528e-09
Time = 0.00078

PIMPLE: iteration 1
DILUPBiCGStab:  Solving for Ux, Initial residual = 0.005325448465, Final residual = 1.684829328e-25, No Iterations 1
DILUPBiCGStab:  Solving for Uy, Initial residual = 0.006221426026, Final residual = 3.437551789e-26, No Iterations 1
DILUPBiCGStab:  Solving for rho, Initial residual = 0.007048154849, Final residual = 1.110111648e-30, No Iterations 1
DICPCG:  Solving for p, Initial residual = 0.002914289203, Final residual = 9.085715847e-10, No Iterations 166
ExecutionTime = 10.06 s  ClockTime = 16 s

Courant Number mean: 2.295480275e-10 max: 1.126877582e-09
Time = 0.00079

PIMPLE: iteration 1
DILUPBiCGStab:  Solving for Ux, Initial residual = 0.005338403523, Final residual = 1.696403937e-25, No Iterations 1
DILUPBiCGStab:  Solving for Uy, Initial residual = 0.00615860627, Final residual = 3.419019286e-26, No Iterations 1
DILUPBiCGStab:  Solving for rho, Initial residual = 0.006959180586, Final residual = 1.094812471e-30, No Iterations 1
DICPCG:  Solving for p, Initial residual = 0.002901736745, Final residual = 8.905494954e-10, No Iterations 166
ExecutionTime = 10.18 s  ClockTime = 16 s

Courant Number mean: 2.297477044e-10 max: 1.135354113e-09
Time = 0.0008

PIMPLE: iteration 1
DILUPBiCGStab:  Solving for Ux, Initial residual = 0.005351358425, Final residual = 1.707438756e-25, No Iterations 1
DILUPBiCGStab:  Solving for Uy, Initial residual = 0.006097103523, Final residual = 3.381167974e-26, No Iterations 1
DILUPBiCGStab:  Solving for rho, Initial residual = 0.006872088667, Final residual = 1.069792027e-30, No Iterations 1
DICPCG:  Solving for p, Initial residual = 0.002889844365, Final residual = 8.7302556e-10, No Iterations 166
ExecutionTime = 10.3 s  ClockTime = 16 s

Courant Number mean: 2.29942648e-10 max: 1.143682744e-09
Time = 0.00081

PIMPLE: iteration 1
DILUPBiCGStab:  Solving for Ux, Initial residual = 0.00536337453, Final residual = 1.719321425e-25, No Iterations 1
DILUPBiCGStab:  Solving for Uy, Initial residual = 0.006036826125, Final residual = 3.318235129e-26, No Iterations 1
DILUPBiCGStab:  Solving for rho, Initial residual = 0.00678822096, Final residual = 1.059575051e-30, No Iterations 1
DICPCG:  Solving for p, Initial residual = 0.002877643078, Final residual = 9.907643395e-10, No Iterations 165
ExecutionTime = 10.42 s  ClockTime = 16 s

Courant Number mean: 2.301336163e-10 max: 1.151867903e-09
Time = 0.00082

PIMPLE: iteration 1
DILUPBiCGStab:  Solving for Ux, Initial residual = 0.005375054054, Final residual = 1.72802197e-25, No Iterations 1
DILUPBiCGStab:  Solving for Uy, Initial residual = 0.005977995462, Final residual = 3.331222829e-26, No Iterations 1
DILUPBiCGStab:  Solving for rho, Initial residual = 0.006706398578, Final residual = 1.036525757e-30, No Iterations 1
DICPCG:  Solving for p, Initial residual = 0.002865481729, Final residual = 9.759546778e-10, No Iterations 165
ExecutionTime = 10.54 s  ClockTime = 16 s

Courant Number mean: 2.303183774e-10 max: 1.15991383e-09
Time = 0.00083

PIMPLE: iteration 1
DILUPBiCGStab:  Solving for Ux, Initial residual = 0.005386077739, Final residual = 1.73840947e-25, No Iterations 1
DILUPBiCGStab:  Solving for Uy, Initial residual = 0.005920375, Final residual = 3.274393425e-26, No Iterations 1
DILUPBiCGStab:  Solving for rho, Initial residual = 0.006626466039, Final residual = 1.061483507e-30, No Iterations 1
DICPCG:  Solving for p, Initial residual = 0.00285371816, Final residual = 9.526452199e-10, No Iterations 165
ExecutionTime = 10.65 s  ClockTime = 17 s

Courant Number mean: 2.304993413e-10 max: 1.167824589e-09
Time = 0.00084

PIMPLE: iteration 1
DILUPBiCGStab:  Solving for Ux, Initial residual = 0.005397069579, Final residual = 1.750288686e-25, No Iterations 1
DILUPBiCGStab:  Solving for Uy, Initial residual = 0.005864017857, Final residual = 3.258719656e-26, No Iterations 1
DILUPBiCGStab:  Solving for rho, Initial residual = 0.006548332433, Final residual = 1.067116549e-30, No Iterations 1
DICPCG:  Solving for p, Initial residual = 0.002842502596, Final residual = 9.325750251e-10, No Iterations 165
ExecutionTime = 10.78 s  ClockTime = 17 s

Courant Number mean: 2.306823704e-10 max: 1.175604077e-09
Time = 0.00085

PIMPLE: iteration 1
DILUPBiCGStab:  Solving for Ux, Initial residual = 0.005406992848, Final residual = 1.754048909e-25, No Iterations 1
DILUPBiCGStab:  Solving for Uy, Initial residual = 0.005808793993, Final residual = 3.278221734e-26, No Iterations 1
DILUPBiCGStab:  Solving for rho, Initial residual = 0.00647213066, Final residual = 1.034482105e-30, No Iterations 1
DICPCG:  Solving for p, Initial residual = 0.002830956046, Final residual = 9.128942823e-10, No Iterations 165
ExecutionTime = 10.89 s  ClockTime = 17 s

Courant Number mean: 2.308620089e-10 max: 1.183256035e-09
Time = 0.00086

PIMPLE: iteration 1
DILUPBiCGStab:  Solving for Ux, Initial residual = 0.005416264976, Final residual = 1.774303238e-25, No Iterations 1
DILUPBiCGStab:  Solving for Uy, Initial residual = 0.005754702205, Final residual = 3.213923735e-26, No Iterations 1
DILUPBiCGStab:  Solving for rho, Initial residual = 0.006398093029, Final residual = 1.021642521e-30, No Iterations 1
DICPCG:  Solving for p, Initial residual = 0.002819356973, Final residual = 8.937024648e-10, No Iterations 165
ExecutionTime = 11.02 s  ClockTime = 17 s

Courant Number mean: 2.310382173e-10 max: 1.190784052e-09
Time = 0.00087

PIMPLE: iteration 1
DILUPBiCGStab:  Solving for Ux, Initial residual = 0.005425494923, Final residual = 1.780669728e-25, No Iterations 1
DILUPBiCGStab:  Solving for Uy, Initial residual = 0.005701663323, Final residual = 3.139352217e-26, No Iterations 1
DILUPBiCGStab:  Solving for rho, Initial residual = 0.006325904706, Final residual = 9.992919333e-31, No Iterations 1
DICPCG:  Solving for p, Initial residual = 0.002808512697, Final residual = 9.889244189e-10, No Iterations 164
ExecutionTime = 11.13 s  ClockTime = 17 s

Courant Number mean: 2.312098961e-10 max: 1.198191577e-09
Time = 0.00088

PIMPLE: iteration 1
DILUPBiCGStab:  Solving for Ux, Initial residual = 0.005433928762, Final residual = 1.796973826e-25, No Iterations 1
DILUPBiCGStab:  Solving for Uy, Initial residual = 0.00564971582, Final residual = 3.097767783e-26, No Iterations 1
DILUPBiCGStab:  Solving for rho, Initial residual = 0.006255282452, Final residual = 1.019577323e-30, No Iterations 1
DICPCG:  Solving for p, Initial residual = 0.002797782879, Final residual = 9.782926666e-10, No Iterations 164
ExecutionTime = 11.25 s  ClockTime = 17 s

Courant Number mean: 2.31376787e-10 max: 1.205481923e-09
Time = 0.00089

PIMPLE: iteration 1
DILUPBiCGStab:  Solving for Ux, Initial residual = 0.005441399024, Final residual = 1.801861943e-25, No Iterations 1
DILUPBiCGStab:  Solving for Uy, Initial residual = 0.005598844562, Final residual = 3.127244638e-26, No Iterations 1
DILUPBiCGStab:  Solving for rho, Initial residual = 0.006186408631, Final residual = 1.013937043e-30, No Iterations 1
DICPCG:  Solving for p, Initial residual = 0.002786675227, Final residual = 9.571908821e-10, No Iterations 164
ExecutionTime = 11.37 s  ClockTime = 17 s

Courant Number mean: 2.315418336e-10 max: 1.212658275e-09
Time = 0.0009

PIMPLE: iteration 1
DILUPBiCGStab:  Solving for Ux, Initial residual = 0.005448808331, Final residual = 1.815184925e-25, No Iterations 1
DILUPBiCGStab:  Solving for Uy, Initial residual = 0.00554913766, Final residual = 3.036378539e-26, No Iterations 1
DILUPBiCGStab:  Solving for rho, Initial residual = 0.006119178705, Final residual = 9.892205312e-31, No Iterations 1
DICPCG:  Solving for p, Initial residual = 0.002775934072, Final residual = 9.926393278e-10, No Iterations 163
ExecutionTime = 11.49 s  ClockTime = 17 s

Courant Number mean: 2.31708122e-10 max: 1.219723699e-09
Time = 0.00091

PIMPLE: iteration 1
DILUPBiCGStab:  Solving for Ux, Initial residual = 0.005455805782, Final residual = 1.826857446e-25, No Iterations 1
DILUPBiCGStab:  Solving for Uy, Initial residual = 0.005500384871, Final residual = 3.003632986e-26, No Iterations 1
DILUPBiCGStab:  Solving for rho, Initial residual = 0.006053618511, Final residual = 9.63395087e-31, No Iterations 1
DICPCG:  Solving for p, Initial residual = 0.002765648179, Final residual = 9.845243556e-10, No Iterations 163
ExecutionTime = 11.6 s  ClockTime = 17 s

Courant Number mean: 2.318713587e-10 max: 1.226681141e-09
Time = 0.00092

PIMPLE: iteration 1
DILUPBiCGStab:  Solving for Ux, Initial residual = 0.005462250346, Final residual = 1.836958416e-25, No Iterations 1
DILUPBiCGStab:  Solving for Uy, Initial residual = 0.005452596248, Final residual = 3.020056551e-26, No Iterations 1
DILUPBiCGStab:  Solving for rho, Initial residual = 0.005989241558, Final residual = 9.416970099e-31, No Iterations 1
DICPCG:  Solving for p, Initial residual = 0.002755430142, Final residual = 9.966000882e-10, No Iterations 160
ExecutionTime = 11.71 s  ClockTime = 18 s

Courant Number mean: 2.320293364e-10 max: 1.233533442e-09
Time = 0.00093

PIMPLE: iteration 1
DILUPBiCGStab:  Solving for Ux, Initial residual = 0.005467203565, Final residual = 1.845950392e-25, No Iterations 1
DILUPBiCGStab:  Solving for Uy, Initial residual = 0.005405679648, Final residual = 2.990540472e-26, No Iterations 1
DILUPBiCGStab:  Solving for rho, Initial residual = 0.005926365337, Final residual = 8.862864709e-31, No Iterations 1
DICPCG:  Solving for p, Initial residual = 0.002744874873, Final residual = 9.774443828e-10, No Iterations 163
ExecutionTime = 11.81 s  ClockTime = 18 s

Courant Number mean: 2.321834615e-10 max: 1.240283334e-09
Time = 0.00094

PIMPLE: iteration 1
DILUPBiCGStab:  Solving for Ux, Initial residual = 0.005472426345, Final residual = 1.85462901e-25, No Iterations 1
DILUPBiCGStab:  Solving for Uy, Initial residual = 0.005359720881, Final residual = 2.999901905e-26, No Iterations 1
DILUPBiCGStab:  Solving for rho, Initial residual = 0.005865006545, Final residual = 8.838786771e-31, No Iterations 1
DICPCG:  Solving for p, Initial residual = 0.002734628748, Final residual = 9.517228654e-10, No Iterations 160
ExecutionTime = 11.92 s  ClockTime = 18 s

Courant Number mean: 2.323316557e-10 max: 1.24693345e-09
Time = 0.00095

PIMPLE: iteration 1
DILUPBiCGStab:  Solving for Ux, Initial residual = 0.005477175471, Final residual = 1.870492334e-25, No Iterations 1
DILUPBiCGStab:  Solving for Uy, Initial residual = 0.005314677681, Final residual = 2.897931195e-26, No Iterations 1
DILUPBiCGStab:  Solving for rho, Initial residual = 0.005805387882, Final residual = 8.453642469e-31, No Iterations 1
DICPCG:  Solving for p, Initial residual = 0.002724936623, Final residual = 9.626300453e-10, No Iterations 160
ExecutionTime = 12.02 s  ClockTime = 18 s

Courant Number mean: 2.324797004e-10 max: 1.253486333e-09
Time = 0.00096

PIMPLE: iteration 1
DILUPBiCGStab:  Solving for Ux, Initial residual = 0.005480879897, Final residual = 1.875935374e-25, No Iterations 1
DILUPBiCGStab:  Solving for Uy, Initial residual = 0.005270453643, Final residual = 2.848635259e-26, No Iterations 1
DILUPBiCGStab:  Solving for rho, Initial residual = 0.005746583412, Final residual = 8.711425889e-31, No Iterations 1
DICPCG:  Solving for p, Initial residual = 0.002715097789, Final residual = 9.469311789e-10, No Iterations 160
ExecutionTime = 12.12 s  ClockTime = 18 s

Courant Number mean: 2.326274222e-10 max: 1.259944426e-09
Time = 0.00097

PIMPLE: iteration 1
DILUPBiCGStab:  Solving for Ux, Initial residual = 0.005483789738, Final residual = 1.888124671e-25, No Iterations 1
DILUPBiCGStab:  Solving for Uy, Initial residual = 0.005227102699, Final residual = 2.870535029e-26, No Iterations 1
DILUPBiCGStab:  Solving for rho, Initial residual = 0.005688872099, Final residual = 8.298293889e-31, No Iterations 1
DICPCG:  Solving for p, Initial residual = 0.002705161197, Final residual = 9.882451524e-10, No Iterations 157
ExecutionTime = 12.23 s  ClockTime = 18 s

Courant Number mean: 2.3277159e-10 max: 1.266310094e-09
Time = 0.00098

PIMPLE: iteration 1
DILUPBiCGStab:  Solving for Ux, Initial residual = 0.005487169744, Final residual = 1.9044744e-25, No Iterations 1
DILUPBiCGStab:  Solving for Uy, Initial residual = 0.005184608178, Final residual = 2.889555863e-26, No Iterations 1
DILUPBiCGStab:  Solving for rho, Initial residual = 0.005632489585, Final residual = 8.015074208e-31, No Iterations 1
DICPCG:  Solving for p, Initial residual = 0.002695489962, Final residual = 9.964306557e-10, No Iterations 157
ExecutionTime = 12.34 s  ClockTime = 18 s

Courant Number mean: 2.329116769e-10 max: 1.272585615e-09
Time = 0.00099

PIMPLE: iteration 1
DILUPBiCGStab:  Solving for Ux, Initial residual = 0.005489365528, Final residual = 1.90943386e-25, No Iterations 1
DILUPBiCGStab:  Solving for Uy, Initial residual = 0.005142802266, Final residual = 2.826671301e-26, No Iterations 1
DILUPBiCGStab:  Solving for rho, Initial residual = 0.005577743653, Final residual = 8.070199807e-31, No Iterations 1
DICPCG:  Solving for p, Initial residual = 0.002686269138, Final residual = 9.797044526e-10, No Iterations 157
ExecutionTime = 12.44 s  ClockTime = 18 s

Courant Number mean: 2.330488853e-10 max: 1.27877319e-09
Time = 0.001

PIMPLE: iteration 1
DILUPBiCGStab:  Solving for Ux, Initial residual = 0.005490809156, Final residual = 1.917984538e-25, No Iterations 1
DILUPBiCGStab:  Solving for Uy, Initial residual = 0.005101805385, Final residual = 2.828081283e-26, No Iterations 1
DILUPBiCGStab:  Solving for rho, Initial residual = 0.00552403219, Final residual = 7.831366263e-31, No Iterations 1
DICPCG:  Solving for p, Initial residual = 0.002676772667, Final residual = 9.934134546e-10, No Iterations 155
ExecutionTime = 12.56 s  ClockTime = 18 s

Courant Number mean: 2.331823027e-10 max: 1.284874942e-09
Time = 0.00101

PIMPLE: iteration 1
DILUPBiCGStab:  Solving for Ux, Initial residual = 0.005491882323, Final residual = 1.927083393e-25, No Iterations 1
DILUPBiCGStab:  Solving for Uy, Initial residual = 0.005061651602, Final residual = 2.754076113e-26, No Iterations 1
DILUPBiCGStab:  Solving for rho, Initial residual = 0.0054710494, Final residual = 7.912469774e-31, No Iterations 1
DICPCG:  Solving for p, Initial residual = 0.002667323414, Final residual = 9.899487751e-10, No Iterations 155
ExecutionTime = 12.66 s  ClockTime = 19 s

Courant Number mean: 2.33317182e-10 max: 1.290892925e-09
Time = 0.00102

PIMPLE: iteration 1
DILUPBiCGStab:  Solving for Ux, Initial residual = 0.005492655667, Final residual = 1.938222922e-25, No Iterations 1
DILUPBiCGStab:  Solving for Uy, Initial residual = 0.0050223424, Final residual = 2.85029766e-26, No Iterations 1
DILUPBiCGStab:  Solving for rho, Initial residual = 0.005419167939, Final residual = 8.142845107e-31, No Iterations 1
DICPCG:  Solving for p, Initial residual = 0.002658273004, Final residual = 9.946627513e-10, No Iterations 154
ExecutionTime = 12.77 s  ClockTime = 19 s

Courant Number mean: 2.334515009e-10 max: 1.296925491e-09
Time = 0.00103

PIMPLE: iteration 1
DILUPBiCGStab:  Solving for Ux, Initial residual = 0.005492702008, Final residual = 1.941190654e-25, No Iterations 1
DILUPBiCGStab:  Solving for Uy, Initial residual = 0.004983667565, Final residual = 2.773087671e-26, No Iterations 1
DILUPBiCGStab:  Solving for rho, Initial residual = 0.005368773819, Final residual = 8.110370022e-31, No Iterations 1
DICPCG:  Solving for p, Initial residual = 0.002649517429, Final residual = 9.814061482e-10, No Iterations 153
ExecutionTime = 12.87 s  ClockTime = 19 s

Courant Number mean: 2.33582905e-10 max: 1.303627671e-09
Time = 0.00104

PIMPLE: iteration 1
DILUPBiCGStab:  Solving for Ux, Initial residual = 0.005492057092, Final residual = 1.950982299e-25, No Iterations 1
DILUPBiCGStab:  Solving for Uy, Initial residual = 0.004945633726, Final residual = 2.665865619e-26, No Iterations 1
DILUPBiCGStab:  Solving for rho, Initial residual = 0.005319231591, Final residual = 8.321764566e-31, No Iterations 1
DICPCG:  Solving for p, Initial residual = 0.00264034436, Final residual = 9.930540638e-10, No Iterations 152
ExecutionTime = 12.98 s  ClockTime = 19 s

Courant Number mean: 2.33711155e-10 max: 1.310242485e-09
Time = 0.00105

PIMPLE: iteration 1
DILUPBiCGStab:  Solving for Ux, Initial residual = 0.005491327299, Final residual = 1.964532168e-25, No Iterations 1
DILUPBiCGStab:  Solving for Uy, Initial residual = 0.004908320726, Final residual = 2.709459954e-26, No Iterations 1
DILUPBiCGStab:  Solving for rho, Initial residual = 0.005270565609, Final residual = 8.588843102e-31, No Iterations 1
DICPCG:  Solving for p, Initial residual = 0.002631325766, Final residual = 9.78022488e-10, No Iterations 152
ExecutionTime = 13.07 s  ClockTime = 19 s

Courant Number mean: 2.33835876e-10 max: 1.316856994e-09
Time = 0.00106

PIMPLE: iteration 1
DILUPBiCGStab:  Solving for Ux, Initial residual = 0.005490096033, Final residual = 1.969005625e-25, No Iterations 1
DILUPBiCGStab:  Solving for Uy, Initial residual = 0.004871703373, Final residual = 2.681406862e-26, No Iterations 1
DILUPBiCGStab:  Solving for rho, Initial residual = 0.005222640112, Final residual = 8.868937601e-31, No Iterations 1
DICPCG:  Solving for p, Initial residual = 0.002622791929, Final residual = 9.859962215e-10, No Iterations 151
ExecutionTime = 13.18 s  ClockTime = 19 s

Courant Number mean: 2.339573646e-10 max: 1.32407653e-09
Time = 0.00107

PIMPLE: iteration 1
DILUPBiCGStab:  Solving for Ux, Initial residual = 0.005488235599, Final residual = 1.979287075e-25, No Iterations 1
DILUPBiCGStab:  Solving for Uy, Initial residual = 0.004835694891, Final residual = 2.673720926e-26, No Iterations 1
DILUPBiCGStab:  Solving for rho, Initial residual = 0.005175976261, Final residual = 9.019601629e-31, No Iterations 1
DICPCG:  Solving for p, Initial residual = 0.002614357298, Final residual = 9.670374567e-10, No Iterations 151
ExecutionTime = 13.27 s  ClockTime = 19 s

Courant Number mean: 2.34080623e-10 max: 1.331207081e-09
Time = 0.00108

PIMPLE: iteration 1
DILUPBiCGStab:  Solving for Ux, Initial residual = 0.005485770334, Final residual = 1.982990303e-25, No Iterations 1
DILUPBiCGStab:  Solving for Uy, Initial residual = 0.004800415761, Final residual = 2.677127023e-26, No Iterations 1
DILUPBiCGStab:  Solving for rho, Initial residual = 0.005130187525, Final residual = 9.205222583e-31, No Iterations 1
DICPCG:  Solving for p, Initial residual = 0.002605588363, Final residual = 9.913563264e-10, No Iterations 149
ExecutionTime = 13.38 s  ClockTime = 19 s

Courant Number mean: 2.342029413e-10 max: 1.338250516e-09
Time = 0.00109

PIMPLE: iteration 1
DILUPBiCGStab:  Solving for Ux, Initial residual = 0.00548351918, Final residual = 1.992359574e-25, No Iterations 1
DILUPBiCGStab:  Solving for Uy, Initial residual = 0.004765770784, Final residual = 2.598914486e-26, No Iterations 1
DILUPBiCGStab:  Solving for rho, Initial residual = 0.005084984899, Final residual = 9.531704763e-31, No Iterations 1
DICPCG:  Solving for p, Initial residual = 0.002597143093, Final residual = 9.71559402e-10, No Iterations 149
ExecutionTime = 13.48 s  ClockTime = 19 s

Courant Number mean: 2.343224541e-10 max: 1.345208651e-09
Time = 0.0011

PIMPLE: iteration 1
DILUPBiCGStab:  Solving for Ux, Initial residual = 0.005480545278, Final residual = 2.001443929e-25, No Iterations 1
DILUPBiCGStab:  Solving for Uy, Initial residual = 0.004731655332, Final residual = 2.555266449e-26, No Iterations 1
DILUPBiCGStab:  Solving for rho, Initial residual = 0.005040622515, Final residual = 1.04420146e-30, No Iterations 1
DICPCG:  Solving for p, Initial residual = 0.002589045163, Final residual = 9.656741526e-10, No Iterations 149
ExecutionTime = 13.59 s  ClockTime = 19 s

Courant Number mean: 2.344387085e-10 max: 1.352083245e-09
Time = 0.00111

PIMPLE: iteration 1
DILUPBiCGStab:  Solving for Ux, Initial residual = 0.005477123031, Final residual = 2.010111184e-25, No Iterations 1
DILUPBiCGStab:  Solving for Uy, Initial residual = 0.004698050492, Final residual = 2.615705195e-26, No Iterations 1
DILUPBiCGStab:  Solving for rho, Initial residual = 0.004997173657, Final residual = 1.042619928e-30, No Iterations 1
DICPCG:  Solving for p, Initial residual = 0.002580837449, Final residual = 9.927395141e-10, No Iterations 148
ExecutionTime = 13.68 s  ClockTime = 20 s

Courant Number mean: 2.345524046e-10 max: 1.358876009e-09
Time = 0.00112

PIMPLE: iteration 1
DILUPBiCGStab:  Solving for Ux, Initial residual = 0.005473108128, Final residual = 2.012946418e-25, No Iterations 1
DILUPBiCGStab:  Solving for Uy, Initial residual = 0.004665072055, Final residual = 2.623179622e-26, No Iterations 1
DILUPBiCGStab:  Solving for rho, Initial residual = 0.004954731368, Final residual = 1.03868821e-30, No Iterations 1
DICPCG:  Solving for p, Initial residual = 0.00257251685, Final residual = 9.80280948e-10, No Iterations 148
ExecutionTime = 13.78 s  ClockTime = 20 s

Courant Number mean: 2.346647702e-10 max: 1.365588605e-09
Time = 0.00113

PIMPLE: iteration 1
DILUPBiCGStab:  Solving for Ux, Initial residual = 0.005469170204, Final residual = 2.021053506e-25, No Iterations 1
DILUPBiCGStab:  Solving for Uy, Initial residual = 0.004632757075, Final residual = 2.533927314e-26, No Iterations 1
DILUPBiCGStab:  Solving for rho, Initial residual = 0.004912907609, Final residual = 1.164412817e-30, No Iterations 1
DICPCG:  Solving for p, Initial residual = 0.002564499866, Final residual = 9.679791082e-10, No Iterations 148
ExecutionTime = 13.87 s  ClockTime = 20 s

Courant Number mean: 2.347789877e-10 max: 1.372222647e-09
Time = 0.00114

PIMPLE: iteration 1
DILUPBiCGStab:  Solving for Ux, Initial residual = 0.005465017928, Final residual = 2.03508581e-25, No Iterations 1
DILUPBiCGStab:  Solving for Uy, Initial residual = 0.004601067724, Final residual = 2.471659793e-26, No Iterations 1
DILUPBiCGStab:  Solving for rho, Initial residual = 0.004871630847, Final residual = 1.176399911e-30, No Iterations 1
DICPCG:  Solving for p, Initial residual = 0.002556900724, Final residual = 9.499543683e-10, No Iterations 148
ExecutionTime = 13.96 s  ClockTime = 20 s

Courant Number mean: 2.34892146e-10 max: 1.378779704e-09
Time = 0.00115

PIMPLE: iteration 1
DILUPBiCGStab:  Solving for Ux, Initial residual = 0.005460028415, Final residual = 2.044708172e-25, No Iterations 1
DILUPBiCGStab:  Solving for Uy, Initial residual = 0.004569788079, Final residual = 2.446194492e-26, No Iterations 1
DILUPBiCGStab:  Solving for rho, Initial residual = 0.004831130517, Final residual = 1.222413129e-30, No Iterations 1
DICPCG:  Solving for p, Initial residual = 0.002548952868, Final residual = 9.869603767e-10, No Iterations 147
ExecutionTime = 14.06 s  ClockTime = 20 s

Courant Number mean: 2.350034028e-10 max: 1.385261299e-09
Time = 0.00116

PIMPLE: iteration 1
DILUPBiCGStab:  Solving for Ux, Initial residual = 0.00545472309, Final residual = 2.054742798e-25, No Iterations 1
DILUPBiCGStab:  Solving for Uy, Initial residual = 0.00453900619, Final residual = 2.511798742e-26, No Iterations 1
DILUPBiCGStab:  Solving for rho, Initial residual = 0.004791643793, Final residual = 1.258621024e-30, No Iterations 1
DICPCG:  Solving for p, Initial residual = 0.002541039934, Final residual = 9.724874323e-10, No Iterations 147
ExecutionTime = 14.16 s  ClockTime = 20 s

Courant Number mean: 2.351115188e-10 max: 1.391668916e-09
Time = 0.00117

PIMPLE: iteration 1
DILUPBiCGStab:  Solving for Ux, Initial residual = 0.005449596528, Final residual = 2.057245616e-25, No Iterations 1
DILUPBiCGStab:  Solving for Uy, Initial residual = 0.004508721012, Final residual = 2.470219989e-26, No Iterations 1
DILUPBiCGStab:  Solving for rho, Initial residual = 0.004752752959, Final residual = 1.227290002e-30, No Iterations 1
DICPCG:  Solving for p, Initial residual = 0.002533451817, Final residual = 9.934057636e-10, No Iterations 146
ExecutionTime = 14.26 s  ClockTime = 20 s

Courant Number mean: 2.352167921e-10 max: 1.398003996e-09
Time = 0.00118

PIMPLE: iteration 1
DILUPBiCGStab:  Solving for Ux, Initial residual = 0.005444069382, Final residual = 2.057836728e-25, No Iterations 1
DILUPBiCGStab:  Solving for Uy, Initial residual = 0.004479005919, Final residual = 2.535775099e-26, No Iterations 1
DILUPBiCGStab:  Solving for rho, Initial residual = 0.004714403145, Final residual = 1.339403381e-30, No Iterations 1
DICPCG:  Solving for p, Initial residual = 0.002526082938, Final residual = 9.893436692e-10, No Iterations 144
ExecutionTime = 14.36 s  ClockTime = 20 s

Courant Number mean: 2.353213456e-10 max: 1.404267941e-09
Time = 0.00119

PIMPLE: iteration 1
DILUPBiCGStab:  Solving for Ux, Initial residual = 0.005437663606, Final residual = 2.069182507e-25, No Iterations 1
DILUPBiCGStab:  Solving for Uy, Initial residual = 0.004449776384, Final residual = 2.420651527e-26, No Iterations 1
DILUPBiCGStab:  Solving for rho, Initial residual = 0.004676755083, Final residual = 1.378448364e-30, No Iterations 1
DICPCG:  Solving for p, Initial residual = 0.002518457709, Final residual = 9.792229948e-10, No Iterations 144
ExecutionTime = 14.46 s  ClockTime = 20 s

Courant Number mean: 2.354257629e-10 max: 1.410462116e-09
Time = 0.0012

PIMPLE: iteration 1
DILUPBiCGStab:  Solving for Ux, Initial residual = 0.005431477938, Final residual = 2.075595951e-25, No Iterations 1
DILUPBiCGStab:  Solving for Uy, Initial residual = 0.004421071653, Final residual = 2.443748535e-26, No Iterations 1
DILUPBiCGStab:  Solving for rho, Initial residual = 0.004639818683, Final residual = 1.378165633e-30, No Iterations 1
DICPCG:  Solving for p, Initial residual = 0.002510982501, Final residual = 9.641159955e-10, No Iterations 144
ExecutionTime = 14.56 s  ClockTime = 20 s

Courant Number mean: 2.35528983e-10 max: 1.416587847e-09
Time = 0.00121

PIMPLE: iteration 1
DILUPBiCGStab:  Solving for Ux, Initial residual = 0.005425178809, Final residual = 2.089149607e-25, No Iterations 1
DILUPBiCGStab:  Solving for Uy, Initial residual = 0.004392774839, Final residual = 2.422044866e-26, No Iterations 1
DILUPBiCGStab:  Solving for rho, Initial residual = 0.004603515747, Final residual = 1.373891653e-30, No Iterations 1
DICPCG:  Solving for p, Initial residual = 0.002503846031, Final residual = 9.992407486e-10, No Iterations 143
ExecutionTime = 14.66 s  ClockTime = 21 s

Courant Number mean: 2.356304336e-10 max: 1.422646427e-09
Time = 0.00122

PIMPLE: iteration 1
DILUPBiCGStab:  Solving for Ux, Initial residual = 0.005418225793, Final residual = 2.087622327e-25, No Iterations 1
DILUPBiCGStab:  Solving for Uy, Initial residual = 0.004364900576, Final residual = 2.391172198e-26, No Iterations 1
DILUPBiCGStab:  Solving for rho, Initial residual = 0.004567783246, Final residual = 1.453164147e-30, No Iterations 1
DICPCG:  Solving for p, Initial residual = 0.002496764273, Final residual = 9.88884652e-10, No Iterations 143
ExecutionTime = 14.76 s  ClockTime = 21 s

Courant Number mean: 2.357293976e-10 max: 1.428639114e-09
Time = 0.00123

PIMPLE: iteration 1
DILUPBiCGStab:  Solving for Ux, Initial residual = 0.005410599048, Final residual = 2.097102744e-25, No Iterations 1
DILUPBiCGStab:  Solving for Uy, Initial residual = 0.004337400934, Final residual = 2.373972275e-26, No Iterations 1
DILUPBiCGStab:  Solving for rho, Initial residual = 0.004532733244, Final residual = 1.484675391e-30, No Iterations 1
DICPCG:  Solving for p, Initial residual = 0.002489366351, Final residual = 9.752963209e-10, No Iterations 143
ExecutionTime = 14.86 s  ClockTime = 21 s

Courant Number mean: 2.358274798e-10 max: 1.434567132e-09
Time = 0.00124

PIMPLE: iteration 1
DILUPBiCGStab:  Solving for Ux, Initial residual = 0.005403644487, Final residual = 2.109544111e-25, No Iterations 1
DILUPBiCGStab:  Solving for Uy, Initial residual = 0.00431039265, Final residual = 2.330932131e-26, No Iterations 1
DILUPBiCGStab:  Solving for rho, Initial residual = 0.004498106768, Final residual = 1.55714036e-30, No Iterations 1
DICPCG:  Solving for p, Initial residual = 0.002482285262, Final residual = 9.606943338e-10, No Iterations 143
ExecutionTime = 14.95 s  ClockTime = 21 s

Courant Number mean: 2.359245299e-10 max: 1.440431674e-09
Time = 0.00125

PIMPLE: iteration 1
DILUPBiCGStab:  Solving for Ux, Initial residual = 0.005396548429, Final residual = 2.112118664e-25, No Iterations 1
DILUPBiCGStab:  Solving for Uy, Initial residual = 0.004283857408, Final residual = 2.425255984e-26, No Iterations 1
DILUPBiCGStab:  Solving for rho, Initial residual = 0.004464148878, Final residual = 1.534414832e-30, No Iterations 1
DICPCG:  Solving for p, Initial residual = 0.002475616975, Final residual = 9.483974362e-10, No Iterations 143
ExecutionTime = 15.05 s  ClockTime = 21 s

Courant Number mean: 2.36022669e-10 max: 1.446233902e-09
Time = 0.00126

PIMPLE: iteration 1
DILUPBiCGStab:  Solving for Ux, Initial residual = 0.005388563713, Final residual = 2.120435749e-25, No Iterations 1
DILUPBiCGStab:  Solving for Uy, Initial residual = 0.004257725162, Final residual = 2.413305377e-26, No Iterations 1
DILUPBiCGStab:  Solving for rho, Initial residual = 0.004430792528, Final residual = 1.513989572e-30, No Iterations 1
DICPCG:  Solving for p, Initial residual = 0.002468746811, Final residual = 9.352589544e-10, No Iterations 143
ExecutionTime = 15.14 s  ClockTime = 21 s

Courant Number mean: 2.361191585e-10 max: 1.451974947e-09
Time = 0.00127

PIMPLE: iteration 1
DILUPBiCGStab:  Solving for Ux, Initial residual = 0.005380740926, Final residual = 2.118391282e-25, No Iterations 1
DILUPBiCGStab:  Solving for Uy, Initial residual = 0.004231921785, Final residual = 2.330352644e-26, No Iterations 1
DILUPBiCGStab:  Solving for rho, Initial residual = 0.00439795856, Final residual = 1.589172799e-30, No Iterations 1
DICPCG:  Solving for p, Initial residual = 0.002461773047, Final residual = 9.230384864e-10, No Iterations 143
ExecutionTime = 15.24 s  ClockTime = 21 s

Courant Number mean: 2.362137738e-10 max: 1.457655914e-09
Time = 0.00128

PIMPLE: iteration 1
DILUPBiCGStab:  Solving for Ux, Initial residual = 0.005373000406, Final residual = 2.132726246e-25, No Iterations 1
DILUPBiCGStab:  Solving for Uy, Initial residual = 0.004206489133, Final residual = 2.370785229e-26, No Iterations 1
DILUPBiCGStab:  Solving for rho, Initial residual = 0.004365529828, Final residual = 1.633129342e-30, No Iterations 1
DICPCG:  Solving for p, Initial residual = 0.002455091655, Final residual = 9.880942408e-10, No Iterations 142
ExecutionTime = 15.33 s  ClockTime = 21 s

Courant Number mean: 2.363054887e-10 max: 1.463277877e-09
Time = 0.00129

PIMPLE: iteration 1
DILUPBiCGStab:  Solving for Ux, Initial residual = 0.005364619503, Final residual = 2.139917754e-25, No Iterations 1
[...]
DILUPBiCGStab:  Solving for Uy, Initial residual = 0.003897888852, Final residual = 3.094419474e-26, No Iterations 1
DILUPBiCGStab:  Solving for rho, Initial residual = 0.001964546034, Final residual = 2.03327812e-31, No Iterations 1
DICPCG:  Solving for p, Initial residual = 0.001595303671, Final residual = 9.104647256e-10, No Iterations 89
ExecutionTime = 25.59 s  ClockTime = 32 s

Courant Number mean: 2.634850418e-10 max: 2.155643054e-09
Time = 0.00278

PIMPLE: iteration 1
DILUPBiCGStab:  Solving for Ux, Initial residual = 0.003103271535, Final residual = 2.081738753e-25, No Iterations 1
DILUPBiCGStab:  Solving for Uy, Initial residual = 0.003920593678, Final residual = 3.187607585e-26, No Iterations 1
DILUPBiCGStab:  Solving for rho, Initial residual = 0.001956412765, Final residual = 2.012452768e-31, No Iterations 1
DICPCG:  Solving for p, Initial residual = 0.001590384715, Final residual = 9.627970032e-10, No Iterations 42
ExecutionTime = 25.63 s  ClockTime = 32 s

Courant Number mean: 2.641770367e-10 max: 2.159451199e-09
Time = 0.00279

PIMPLE: iteration 1
DILUPBiCGStab:  Solving for Ux, Initial residual = 0.003099304799, Final residual = 2.082797454e-25, No Iterations 1
DILUPBiCGStab:  Solving for Uy, Initial residual = 0.003943466839, Final residual = 3.194540343e-26, No Iterations 1
DILUPBiCGStab:  Solving for rho, Initial residual = 0.001948363652, Final residual = 1.979716179e-31, No Iterations 1
DICPCG:  Solving for p, Initial residual = 0.001585351251, Final residual = 9.477361807e-10, No Iterations 89
ExecutionTime = 25.7 s  ClockTime = 32 s

Courant Number mean: 2.648683382e-10 max: 2.163487144e-09
Time = 0.0028

PIMPLE: iteration 1
DILUPBiCGStab:  Solving for Ux, Initial residual = 0.003095183468, Final residual = 2.085484615e-25, No Iterations 1
DILUPBiCGStab:  Solving for Uy, Initial residual = 0.003966453057, Final residual = 3.143893058e-26, No Iterations 1
DILUPBiCGStab:  Solving for rho, Initial residual = 0.001940451247, Final residual = 2.057651086e-31, No Iterations 1
DICPCG:  Solving for p, Initial residual = 0.001580340418, Final residual = 9.650662121e-10, No Iterations 43
ExecutionTime = 25.75 s  ClockTime = 32 s

Courant Number mean: 2.655621869e-10 max: 2.167505161e-09
Time = 0.00281

PIMPLE: iteration 1
DILUPBiCGStab:  Solving for Ux, Initial residual = 0.003090630677, Final residual = 2.083135019e-25, No Iterations 1
DILUPBiCGStab:  Solving for Uy, Initial residual = 0.003989620641, Final residual = 3.220597871e-26, No Iterations 1
DILUPBiCGStab:  Solving for rho, Initial residual = 0.001932531461, Final residual = 1.948729448e-31, No Iterations 1
DICPCG:  Solving for p, Initial residual = 0.001575322238, Final residual = 8.870151473e-10, No Iterations 90
ExecutionTime = 25.82 s  ClockTime = 32 s

Courant Number mean: 2.662585709e-10 max: 2.171505362e-09
Time = 0.00282

PIMPLE: iteration 1
DILUPBiCGStab:  Solving for Ux, Initial residual = 0.003085753645, Final residual = 2.083608888e-25, No Iterations 1
DILUPBiCGStab:  Solving for Uy, Initial residual = 0.004013102016, Final residual = 3.310068987e-26, No Iterations 1
DILUPBiCGStab:  Solving for rho, Initial residual = 0.001924623377, Final residual = 2.001450495e-31, No Iterations 1
DICPCG:  Solving for p, Initial residual = 0.001570249175, Final residual = 9.957840087e-10, No Iterations 41
ExecutionTime = 25.86 s  ClockTime = 32 s

Courant Number mean: 2.669548487e-10 max: 2.17548789e-09
Time = 0.00283

PIMPLE: iteration 1
DILUPBiCGStab:  Solving for Ux, Initial residual = 0.003080828882, Final residual = 2.0845506e-25, No Iterations 1
DILUPBiCGStab:  Solving for Uy, Initial residual = 0.004036736294, Final residual = 3.30970824e-26, No Iterations 1
DILUPBiCGStab:  Solving for rho, Initial residual = 0.001916823345, Final residual = 1.992225094e-31, No Iterations 1
DICPCG:  Solving for p, Initial residual = 0.001565092908, Final residual = 9.867385999e-10, No Iterations 58
ExecutionTime = 25.91 s  ClockTime = 32 s

Courant Number mean: 2.676511572e-10 max: 2.179452859e-09
Time = 0.00284

PIMPLE: iteration 1
DILUPBiCGStab:  Solving for Ux, Initial residual = 0.003075641998, Final residual = 2.085515548e-25, No Iterations 1
DILUPBiCGStab:  Solving for Uy, Initial residual = 0.004060460327, Final residual = 3.297380303e-26, No Iterations 1
DILUPBiCGStab:  Solving for rho, Initial residual = 0.001909065666, Final residual = 2.155205084e-31, No Iterations 1
DICPCG:  Solving for p, Initial residual = 0.001560007992, Final residual = 9.570046381e-10, No Iterations 72
ExecutionTime = 25.96 s  ClockTime = 32 s

Courant Number mean: 2.683473815e-10 max: 2.183400407e-09
Time = 0.00285

PIMPLE: iteration 1
DILUPBiCGStab:  Solving for Ux, Initial residual = 0.003070071691, Final residual = 2.084411312e-25, No Iterations 1
DILUPBiCGStab:  Solving for Uy, Initial residual = 0.004084420759, Final residual = 3.254076897e-26, No Iterations 1
DILUPBiCGStab:  Solving for rho, Initial residual = 0.001901381151, Final residual = 1.994974372e-31, No Iterations 1
DICPCG:  Solving for p, Initial residual = 0.001554913856, Final residual = 8.368968391e-10, No Iterations 92
ExecutionTime = 26.03 s  ClockTime = 32 s

Courant Number mean: 2.690447503e-10 max: 2.18733066e-09
Time = 0.00286

PIMPLE: iteration 1
DILUPBiCGStab:  Solving for Ux, Initial residual = 0.003064321419, Final residual = 2.086014716e-25, No Iterations 1
DILUPBiCGStab:  Solving for Uy, Initial residual = 0.004108644832, Final residual = 3.347443637e-26, No Iterations 1
DILUPBiCGStab:  Solving for rho, Initial residual = 0.001893788104, Final residual = 1.877841059e-31, No Iterations 1
DICPCG:  Solving for p, Initial residual = 0.001549776158, Final residual = 9.880274123e-10, No Iterations 64
ExecutionTime = 26.09 s  ClockTime = 32 s

Courant Number mean: 2.697420706e-10 max: 2.191243742e-09
Time = 0.00287

PIMPLE: iteration 1
DILUPBiCGStab:  Solving for Ux, Initial residual = 0.003058647146, Final residual = 2.084294323e-25, No Iterations 1
DILUPBiCGStab:  Solving for Uy, Initial residual = 0.004133045049, Final residual = 3.375394231e-26, No Iterations 1
DILUPBiCGStab:  Solving for rho, Initial residual = 0.001886298741, Final residual = 1.834271199e-31, No Iterations 1
DICPCG:  Solving for p, Initial residual = 0.001544609047, Final residual = 9.717205413e-10, No Iterations 61
ExecutionTime = 26.14 s  ClockTime = 32 s

Courant Number mean: 2.704382047e-10 max: 2.195139772e-09
Time = 0.00288

PIMPLE: iteration 1
DILUPBiCGStab:  Solving for Ux, Initial residual = 0.003052591852, Final residual = 2.082038996e-25, No Iterations 1
DILUPBiCGStab:  Solving for Uy, Initial residual = 0.004157627073, Final residual = 3.392665372e-26, No Iterations 1
DILUPBiCGStab:  Solving for rho, Initial residual = 0.001878823931, Final residual = 1.813636909e-31, No Iterations 1
DICPCG:  Solving for p, Initial residual = 0.001539584725, Final residual = 9.183945274e-10, No Iterations 50
ExecutionTime = 26.19 s  ClockTime = 32 s

Courant Number mean: 2.711332235e-10 max: 2.199018875e-09
Time = 0.00289

PIMPLE: iteration 1
DILUPBiCGStab:  Solving for Ux, Initial residual = 0.003046528142, Final residual = 2.081581687e-25, No Iterations 1
DILUPBiCGStab:  Solving for Uy, Initial residual = 0.004182286614, Final residual = 3.373471043e-26, No Iterations 1
DILUPBiCGStab:  Solving for rho, Initial residual = 0.001871462026, Final residual = 1.995413334e-31, No Iterations 1
DICPCG:  Solving for p, Initial residual = 0.00153453802, Final residual = 9.683546765e-10, No Iterations 55
ExecutionTime = 26.24 s  ClockTime = 32 s

Courant Number mean: 2.718298805e-10 max: 2.202881195e-09
Time = 0.0029

PIMPLE: iteration 1
DILUPBiCGStab:  Solving for Ux, Initial residual = 0.003040298323, Final residual = 2.083088817e-25, No Iterations 1
DILUPBiCGStab:  Solving for Uy, Initial residual = 0.004207216535, Final residual = 3.329332593e-26, No Iterations 1
DILUPBiCGStab:  Solving for rho, Initial residual = 0.001864293731, Final residual = 1.809357963e-31, No Iterations 1
DICPCG:  Solving for p, Initial residual = 0.001529597536, Final residual = 9.937367559e-10, No Iterations 66
ExecutionTime = 26.29 s  ClockTime = 32 s

Courant Number mean: 2.725292607e-10 max: 2.206726861e-09
Time = 0.00291

PIMPLE: iteration 1
DILUPBiCGStab:  Solving for Ux, Initial residual = 0.003034033084, Final residual = 2.082601837e-25, No Iterations 1
DILUPBiCGStab:  Solving for Uy, Initial residual = 0.004232395393, Final residual = 3.478902751e-26, No Iterations 1
DILUPBiCGStab:  Solving for rho, Initial residual = 0.001857243046, Final residual = 1.69295388e-31, No Iterations 1
DICPCG:  Solving for p, Initial residual = 0.001524756585, Final residual = 8.769750343e-10, No Iterations 91
ExecutionTime = 26.36 s  ClockTime = 32 s

Courant Number mean: 2.732281835e-10 max: 2.210555999e-09
Time = 0.00292

PIMPLE: iteration 1
DILUPBiCGStab:  Solving for Ux, Initial residual = 0.003027495914, Final residual = 2.080810515e-25, No Iterations 1
DILUPBiCGStab:  Solving for Uy, Initial residual = 0.004257736631, Final residual = 3.433106937e-26, No Iterations 1
DILUPBiCGStab:  Solving for rho, Initial residual = 0.001850353374, Final residual = 1.68427343e-31, No Iterations 1
DICPCG:  Solving for p, Initial residual = 0.001520109289, Final residual = 9.304805786e-10, No Iterations 49
ExecutionTime = 26.4 s  ClockTime = 32 s

Courant Number mean: 2.739260461e-10 max: 2.214368736e-09
Time = 0.00293

PIMPLE: iteration 1
DILUPBiCGStab:  Solving for Ux, Initial residual = 0.003020930816, Final residual = 2.080133729e-25, No Iterations 1
DILUPBiCGStab:  Solving for Uy, Initial residual = 0.004283202469, Final residual = 3.521275596e-26, No Iterations 1
DILUPBiCGStab:  Solving for rho, Initial residual = 0.001843609177, Final residual = 1.642052721e-31, No Iterations 1
DICPCG:  Solving for p, Initial residual = 0.001515584981, Final residual = 9.621613963e-10, No Iterations 50
ExecutionTime = 26.45 s  ClockTime = 32 s

Courant Number mean: 2.746243709e-10 max: 2.218165186e-09
Time = 0.00294

PIMPLE: iteration 1
DILUPBiCGStab:  Solving for Ux, Initial residual = 0.003014157707, Final residual = 2.079422817e-25, No Iterations 1
DILUPBiCGStab:  Solving for Uy, Initial residual = 0.004308923066, Final residual = 3.435036765e-26, No Iterations 1
DILUPBiCGStab:  Solving for rho, Initial residual = 0.001837061936, Final residual = 1.681977868e-31, No Iterations 1
DICPCG:  Solving for p, Initial residual = 0.00151115017, Final residual = 9.652849994e-10, No Iterations 64
ExecutionTime = 26.5 s  ClockTime = 33 s

Courant Number mean: 2.753236137e-10 max: 2.221945493e-09
Time = 0.00295

PIMPLE: iteration 1
DILUPBiCGStab:  Solving for Ux, Initial residual = 0.003007391309, Final residual = 2.077432921e-25, No Iterations 1
DILUPBiCGStab:  Solving for Uy, Initial residual = 0.004334848347, Final residual = 3.511178793e-26, No Iterations 1
DILUPBiCGStab:  Solving for rho, Initial residual = 0.001830636601, Final residual = 1.607649473e-31, No Iterations 1
DICPCG:  Solving for p, Initial residual = 0.001506870293, Final residual = 9.538086835e-10, No Iterations 49
ExecutionTime = 26.55 s  ClockTime = 33 s

Courant Number mean: 2.760244203e-10 max: 2.225709789e-09
Time = 0.00296

PIMPLE: iteration 1
DILUPBiCGStab:  Solving for Ux, Initial residual = 0.003000416201, Final residual = 2.077203609e-25, No Iterations 1
DILUPBiCGStab:  Solving for Uy, Initial residual = 0.004360951052, Final residual = 3.510721316e-26, No Iterations 1
DILUPBiCGStab:  Solving for rho, Initial residual = 0.001824219816, Final residual = 1.598380044e-31, No Iterations 1
DICPCG:  Solving for p, Initial residual = 0.001502781698, Final residual = 9.764407225e-10, No Iterations 55
ExecutionTime = 26.59 s  ClockTime = 33 s

Courant Number mean: 2.767231644e-10 max: 2.229458214e-09
Time = 0.00297

PIMPLE: iteration 1
DILUPBiCGStab:  Solving for Ux, Initial residual = 0.002993321421, Final residual = 2.075357813e-25, No Iterations 1
DILUPBiCGStab:  Solving for Uy, Initial residual = 0.004387203394, Final residual = 3.574970346e-26, No Iterations 1
DILUPBiCGStab:  Solving for rho, Initial residual = 0.001817833153, Final residual = 1.595318136e-31, No Iterations 1
DICPCG:  Solving for p, Initial residual = 0.001498802527, Final residual = 9.438522478e-10, No Iterations 61
ExecutionTime = 26.64 s  ClockTime = 33 s

Courant Number mean: 2.774217665e-10 max: 2.233190907e-09
Time = 0.00298

PIMPLE: iteration 1
DILUPBiCGStab:  Solving for Ux, Initial residual = 0.002986228935, Final residual = 2.073668252e-25, No Iterations 1
DILUPBiCGStab:  Solving for Uy, Initial residual = 0.004413705149, Final residual = 3.563877584e-26, No Iterations 1
DILUPBiCGStab:  Solving for rho, Initial residual = 0.001811516079, Final residual = 1.591383406e-31, No Iterations 1
DICPCG:  Solving for p, Initial residual = 0.001494945445, Final residual = 9.572328729e-10, No Iterations 50
ExecutionTime = 26.68 s  ClockTime = 33 s

Courant Number mean: 2.781197363e-10 max: 2.236908004e-09
Time = 0.00299

PIMPLE: iteration 1
DILUPBiCGStab:  Solving for Ux, Initial residual = 0.002979090757, Final residual = 2.073852802e-25, No Iterations 1
DILUPBiCGStab:  Solving for Uy, Initial residual = 0.004440356587, Final residual = 3.603839858e-26, No Iterations 1
DILUPBiCGStab:  Solving for rho, Initial residual = 0.00180525928, Final residual = 1.546010588e-31, No Iterations 1
DICPCG:  Solving for p, Initial residual = 0.001491244909, Final residual = 9.938332922e-10, No Iterations 57
ExecutionTime = 26.73 s  ClockTime = 33 s

Courant Number mean: 2.788187838e-10 max: 2.240609652e-09
Time = 0.003

PIMPLE: iteration 1
DILUPBiCGStab:  Solving for Ux, Initial residual = 0.002971951593, Final residual = 2.07117528e-25, No Iterations 1
DILUPBiCGStab:  Solving for Uy, Initial residual = 0.004467242358, Final residual = 3.642539526e-26, No Iterations 1
DILUPBiCGStab:  Solving for rho, Initial residual = 0.001799176364, Final residual = 1.674857418e-31, No Iterations 1
DICPCG:  Solving for p, Initial residual = 0.001487771957, Final residual = 9.688278738e-10, No Iterations 64
ExecutionTime = 26.79 s  ClockTime = 33 s

Courant Number mean: 2.79519202e-10 max: 2.244295997e-09
Time = 0.00301

PIMPLE: iteration 1
DILUPBiCGStab:  Solving for Ux, Initial residual = 0.00296456582, Final residual = 2.070855413e-25, No Iterations 1
DILUPBiCGStab:  Solving for Uy, Initial residual = 0.004494326752, Final residual = 3.566716302e-26, No Iterations 1
DILUPBiCGStab:  Solving for rho, Initial residual = 0.001793218702, Final residual = 1.678432269e-31, No Iterations 1
DICPCG:  Solving for p, Initial residual = 0.001484422215, Final residual = 9.55789524e-10, No Iterations 72
ExecutionTime = 26.84 s  ClockTime = 33 s

Courant Number mean: 2.802204147e-10 max: 2.247967187e-09
Time = 0.00302

PIMPLE: iteration 1
DILUPBiCGStab:  Solving for Ux, Initial residual = 0.002957168787, Final residual = 2.07094269e-25, No Iterations 1
DILUPBiCGStab:  Solving for Uy, Initial residual = 0.004521581719, Final residual = 3.659457916e-26, No Iterations 1
DILUPBiCGStab:  Solving for rho, Initial residual = 0.001787371678, Final residual = 1.524504176e-31, No Iterations 1
DICPCG:  Solving for p, Initial residual = 0.001481202806, Final residual = 9.299411831e-10, No Iterations 92
ExecutionTime = 26.91 s  ClockTime = 33 s

Courant Number mean: 2.809224759e-10 max: 2.251623384e-09
Time = 0.00303

PIMPLE: iteration 1
DILUPBiCGStab:  Solving for Ux, Initial residual = 0.002949807405, Final residual = 2.067700217e-25, No Iterations 1
DILUPBiCGStab:  Solving for Uy, Initial residual = 0.004548957957, Final residual = 3.642260097e-26, No Iterations 1
DILUPBiCGStab:  Solving for rho, Initial residual = 0.001781636898, Final residual = 1.88867852e-31, No Iterations 1
DICPCG:  Solving for p, Initial residual = 0.001478104784, Final residual = 9.535823477e-10, No Iterations 50
ExecutionTime = 26.96 s  ClockTime = 33 s

Courant Number mean: 2.816254172e-10 max: 2.255264747e-09
Time = 0.00304

PIMPLE: iteration 1
DILUPBiCGStab:  Solving for Ux, Initial residual = 0.002942379619, Final residual = 2.066645703e-25, No Iterations 1
DILUPBiCGStab:  Solving for Uy, Initial residual = 0.004576587815, Final residual = 3.668827754e-26, No Iterations 1
DILUPBiCGStab:  Solving for rho, Initial residual = 0.001775933718, Final residual = 1.49505232e-31, No Iterations 1
DICPCG:  Solving for p, Initial residual = 0.001475186561, Final residual = 9.722301411e-10, No Iterations 60
ExecutionTime = 27.06 s  ClockTime = 33 s

Courant Number mean: 2.823283618e-10 max: 2.258891458e-09
Time = 0.00305

PIMPLE: iteration 1
DILUPBiCGStab:  Solving for Ux, Initial residual = 0.002934679879, Final residual = 2.066020426e-25, No Iterations 1
DILUPBiCGStab:  Solving for Uy, Initial residual = 0.004604441131, Final residual = 3.796288402e-26, No Iterations 1
DILUPBiCGStab:  Solving for rho, Initial residual = 0.001770287998, Final residual = 1.406722434e-31, No Iterations 1
DICPCG:  Solving for p, Initial residual = 0.001472362675, Final residual = 9.526218694e-10, No Iterations 93
ExecutionTime = 27.16 s  ClockTime = 33 s

Courant Number mean: 2.830300892e-10 max: 2.26250368e-09
Time = 0.00306

PIMPLE: iteration 1
DILUPBiCGStab:  Solving for Ux, Initial residual = 0.002927072778, Final residual = 2.064184155e-25, No Iterations 1
DILUPBiCGStab:  Solving for Uy, Initial residual = 0.004632519404, Final residual = 3.760704211e-26, No Iterations 1
DILUPBiCGStab:  Solving for rho, Initial residual = 0.001764681916, Final residual = 1.429291203e-31, No Iterations 1
DICPCG:  Solving for p, Initial residual = 0.001469606109, Final residual = 9.967939414e-10, No Iterations 75
ExecutionTime = 27.23 s  ClockTime = 33 s

Courant Number mean: 2.837316062e-10 max: 2.266101585e-09
Time = 0.00307

PIMPLE: iteration 1
DILUPBiCGStab:  Solving for Ux, Initial residual = 0.002919480719, Final residual = 2.063722329e-25, No Iterations 1
DILUPBiCGStab:  Solving for Uy, Initial residual = 0.004660800085, Final residual = 3.762848244e-26, No Iterations 1
DILUPBiCGStab:  Solving for rho, Initial residual = 0.001759161804, Final residual = 1.3881088e-31, No Iterations 1
DICPCG:  Solving for p, Initial residual = 0.001466985819, Final residual = 9.819899124e-10, No Iterations 126
ExecutionTime = 27.35 s  ClockTime = 33 s

Courant Number mean: 2.844351456e-10 max: 2.269685379e-09
Time = 0.00308

PIMPLE: iteration 1
DILUPBiCGStab:  Solving for Ux, Initial residual = 0.002911751576, Final residual = 2.064259762e-25, No Iterations 1
DILUPBiCGStab:  Solving for Uy, Initial residual = 0.004689388213, Final residual = 3.718213348e-26, No Iterations 1
DILUPBiCGStab:  Solving for rho, Initial residual = 0.001753664809, Final residual = 1.374824981e-31, No Iterations 1
DICPCG:  Solving for p, Initial residual = 0.001464472467, Final residual = 9.495480094e-10, No Iterations 59
ExecutionTime = 27.41 s  ClockTime = 33 s

Courant Number mean: 2.851381395e-10 max: 2.27325525e-09
Time = 0.00309

PIMPLE: iteration 1
DILUPBiCGStab:  Solving for Ux, Initial residual = 0.002903926517, Final residual = 2.060197436e-25, No Iterations 1
DILUPBiCGStab:  Solving for Uy, Initial residual = 0.004718226025, Final residual = 3.806076532e-26, No Iterations 1
DILUPBiCGStab:  Solving for rho, Initial residual = 0.001748194242, Final residual = 1.593923336e-31, No Iterations 1
DICPCG:  Solving for p, Initial residual = 0.001462151302, Final residual = 9.770961015e-10, No Iterations 77
ExecutionTime = 27.47 s  ClockTime = 34 s

Courant Number mean: 2.858418997e-10 max: 2.276811427e-09
Time = 0.0031

PIMPLE: iteration 1
DILUPBiCGStab:  Solving for Ux, Initial residual = 0.00289604851, Final residual = 2.061132005e-25, No Iterations 1
DILUPBiCGStab:  Solving for Uy, Initial residual = 0.004747431005, Final residual = 3.864144793e-26, No Iterations 1
DILUPBiCGStab:  Solving for rho, Initial residual = 0.001742788078, Final residual = 1.545277023e-31, No Iterations 1
